5FQD
     RDKit          3D

  0  0  0  0  0  0  0  0  0  0999 V3000
M  V30 BEGIN CTAB
M  V30 COUNTS 32 34 0 0 1
M  V30 BEGIN ATOM
M  V30 1 C 133.422981 115.679292 184.368022 0 CFG=1
M  V30 2 C 134.847456 116.126078 184.737970 0
M  V30 3 C 135.763070 116.215949 183.505541 0
M  V30 4 C 135.747758 114.876760 182.736914 0
M  V30 5 N 134.614281 114.153918 182.852240 0
M  V30 6 C 133.451872 114.381648 183.508296 0
M  V30 7 C 130.856755 115.745046 187.019723 0
M  V30 8 C 131.604334 114.672958 187.473714 0
M  V30 9 C 132.735665 114.444762 186.524496 0
M  V30 10 N 132.528029 115.489187 185.522533 0
M  V30 11 C 131.475165 116.298436 185.775753 0
M  V30 12 C 129.352281 115.511697 188.880608 0
M  V30 13 C 130.106687 114.427747 189.346101 0
M  V30 14 C 131.239799 114.005452 188.645571 0
M  V30 15 C 129.721765 116.174095 187.709337 0
M  V30 16 O 131.110747 117.271349 185.116563 0
M  V30 17 N 131.987889 112.926238 189.115249 0
M  V30 18 O 132.502419 113.612674 183.386315 0
M  V30 19 O 136.674704 114.490881 182.028583 0
M  V30 20 H 132.989501 116.441061 183.716264 0
M  V30 21 H 135.269879 115.436174 185.463606 0
M  V30 22 H 134.806357 117.088839 185.243564 0
M  V30 23 H 136.785026 116.457080 183.794413 0
M  V30 24 H 135.428197 117.002726 182.828060 0
M  V30 25 H 134.611908 113.297727 182.316653 0
M  V30 26 H 132.704883 113.453428 186.071763 0
M  V30 27 H 133.711718 114.558234 186.988423 0
M  V30 28 H 128.491913 115.843755 189.439975 0
M  V30 29 H 129.808871 113.925871 190.254667 0
M  V30 30 H 129.141543 117.018415 187.364618 0
M  V30 31 H 131.755637 112.492415 189.999294 0
M  V30 32 H 132.810029 112.633196 188.607091 0
M  V30 END ATOM
M  V30 BEGIN BOND
M  V30 1 1 2 1
M  V30 2 1 3 2
M  V30 3 1 4 3
M  V30 4 1 5 4
M  V30 5 1 6 1
M  V30 6 1 6 5
M  V30 7 1 8 7
M  V30 8 1 9 8
M  V30 9 1 10 1
M  V30 10 1 10 9
M  V30 11 1 11 7
M  V30 12 1 11 10
M  V30 13 2 13 12
M  V30 14 2 14 8
M  V30 15 1 14 13
M  V30 16 2 15 7
M  V30 17 1 15 12
M  V30 18 2 16 11
M  V30 19 1 17 14
M  V30 20 2 18 6
M  V30 21 2 19 4
M  V30 22 1 1 20 CFG=3
M  V30 23 1 21 2
M  V30 24 1 22 2
M  V30 25 1 23 3
M  V30 26 1 24 3
M  V30 27 1 25 5
M  V30 28 1 26 9
M  V30 29 1 27 9
M  V30 30 1 28 12
M  V30 31 1 29 13
M  V30 32 1 30 15
M  V30 33 1 31 17
M  V30 34 1 32 17
M  V30 END BOND
M  V30 END CTAB
M  END
>  <i_m_Source_File_Index>  (1) 
1

>  <b_ppw_added_hydrogens>  (1) 
1

>  <b_ppw_assigned_bond_orders>  (1) 
1

>  <b_ppw_created_disulfur>  (1) 
1

>  <b_ppw_prepared>  (1) 
1

>  <b_ppw_ran_impref>  (1) 
1

>  <b_ppw_ran_protassign>  (1) 
1

>  <b_ppw_treated_metals>  (1) 
1

>  <r_i_Bend_Energy-S-OPLS>  (1) 
3012.6029222387601

>  <r_i_Dihedral_Energy-S-OPLS>  (1) 
3076.75241456398

>  <r_i_El-14_Energy-S-OPLS>  (1) 
2581.85647240865

>  <r_i_Electrostatic_Energy-S-OPLS>  (1) 
-8010.6346141109598

>  <r_i_LJ-14_Energy-S-OPLS>  (1) 
6952.7186581188398

>  <r_i_Max_Derivative-S-OPLS>  (1) 
7.9448984875965003

>  <r_i_Potential_Energy-S-OPLS>  (1) 
-6383.4298963022902

>  <r_i_RMS_Derivative-S-OPLS>  (1) 
0.10411196540693

>  <r_i_Stretch_Energy-S-OPLS>  (1) 
677.81021604747195

>  <r_i_Van_der_Waals_Energy-S-OPLS>  (1) 
-14876.6698304247

>  <r_i_target_temperature>  (1) 
298

>  <s_m_Source_File>  (1) 
5FQD_CK1a.mae

>  <s_m_Source_Path>  (1) 
/Users/johnss51/Data/Structures/old/01-Prep

>  <s_m_backendhidden_zob_param>  (1) 
ewogICAiYW5nbGUiIDogWwogICAgICB7CiAgICAgICAgICJmb3JjZV9jb25zdGFudCIgOiA2MCwKICAgICAgICAgImkiIDogMTkzNDAsCiAgICAgICAgICJqIiA6IDE3NTgwLAogICAgICAgICAiayIgOiAxNzU3OSwKICAgICAgICAgInJlZmVyZW5jZV92YWx1ZSIgOiAxLjczNjQwMDQ0OTg4NDY0NQogICAgICB9LAogICAgICB7CiAgICAgICAgICJmb3JjZV9jb25zdGFudCIgOiA2MCwKICAgICAgICAgImkiIDogMTkzNDAsCiAgICAgICAgICJqIiA6IDE3NjI5LAogICAgICAgICAiayIgOiAxNzYyOCwKICAgICAgICAgInJlZmVyZW5jZV92YWx1ZSIgOiAxLjc5NjY3NTEwOTg3MDUwNDEKICAgICAgfSwKICAgICAgewogICAgICAgICAiZm9yY2VfY29uc3RhbnQiIDogNjAsCiAgICAgICAgICJpIiA6IDE5MzQwLAogICAgICAgICAiaiIgOiAxODYyNiwKICAgICAgICAgImsiIDogMTg2MjUsCiAgICAgICAgICJyZWZlcmVuY2VfdmFsdWUiIDogMS42NDMzMDcyNzUzNTgxMTI2CiAgICAgIH0sCiAgICAgIHsKICAgICAgICAgImZvcmNlX2NvbnN0YW50IiA6IDYwLAogICAgICAgICAiaSIgOiAxOTM0MCwKICAgICAgICAgImoiIDogMTg2NzcsCiAgICAgICAgICJrIiA6IDE4Njc2LAogICAgICAgICAicmVmZXJlbmNlX3ZhbHVlIiA6IDIuMDgzODUyMzM3MTgxNTk2NwogICAgICB9LAogICAgICB7CiAgICAgICAgICJmb3JjZV9jb25zdGFudCIgOiA2MCwKICAgICAgICAgImkiIDogMTc1ODAsCiAgICAgICAgICJqIiA6IDE5MzQwLAogICAgICAgICAiayIgOiAxNzYyOSwKICAgICAgICAgInJlZmVyZW5jZV92YWx1ZSIgOiAyLjExNzI0NTM3MzE2ODI5NzYKICAgICAgfSwKICAgICAgewogICAgICAgICAiZm9yY2VfY29uc3RhbnQiIDogNjAsCiAgICAgICAgICJpIiA6IDE3NTgwLAogICAgICAgICAiaiIgOiAxOTM0MCwKICAgICAgICAgImsiIDogMTg2MjYsCiAgICAgICAgICJyZWZlcmVuY2VfdmFsdWUiIDogMS45ODIyMTA3ODI0NTMxNzYxCiAgICAgIH0sCiAgICAgIHsKICAgICAgICAgImZvcmNlX2NvbnN0YW50IiA6IDYwLAogICAgICAgICAiaSIgOiAxNzU4MCwKICAgICAgICAgImoiIDogMTkzNDAsCiAgICAgICAgICJrIiA6IDE4Njc3LAogICAgICAgICAicmVmZXJlbmNlX3ZhbHVlIiA6IDEuNzM4MDEwNjkxNzg3OTAyNgogICAgICB9LAogICAgICB7CiAgICAgICAgICJmb3JjZV9jb25zdGFudCIgOiA2MCwKICAgICAgICAgImkiIDogMTc2MjksCiAgICAgICAgICJqIiA6IDE5MzQwLAogICAgICAgICAiayIgOiAxODYyNiwKICAgICAgICAgInJlZmVyZW5jZV92YWx1ZSIgOiAxLjg1NDcyNDk4MTM3MDczMDcKICAgICAgfSwKICAgICAgewogICAgICAgICAiZm9yY2VfY29uc3RhbnQiIDogNjAsCiAgICAgICAgICJpIiA6IDE3NjI5LAogICAgICAgICAiaiIgOiAxOTM0MCwKICAgICAgICAgImsiIDogMTg2NzcsCiAgICAgICAgICJyZWZlcmVuY2VfdmFsdWUiIDogMS44MDE1OTIzMzU3NzIxNDUzCiAgICAgIH0sCiAgICAgIHsKICAgICAgICAgImZvcmNlX2NvbnN0YW50IiA6IDYwLAogICAgICAgICAiaSIgOiAxODYyNiwKICAgICAgICAgImoiIDogMTkzNDAsCiAgICAgICAgICJrIiA6IDE4Njc3LAogICAgICAgICAicmVmZXJlbmNlX3ZhbHVlIiA6IDEuOTU4Njg3MDQ1NDI2MzAyOAogICAgICB9CiAgIF0sCiAgICJib25kIiA6IFsKICAgICAgewogICAgICAgICAiZm9yY2VfY29uc3RhbnQiIDogMzAwLAogICAgICAgICAiaSIgOiAxNzU4MCwKICAgICAgICAgImoiIDogMTkzNDAsCiAgICAgICAgICJyZWZlcmVuY2VfdmFsdWUiIDogMi40MDAwNTYxMTg2ODE3OTQ0CiAgICAgIH0sCiAgICAgIHsKICAgICAgICAgImZvcmNlX2NvbnN0YW50IiA6IDMwMCwKICAgICAgICAgImkiIDogMTc2MjksCiAgICAgICAgICJqIiA6IDE5MzQwLAogICAgICAgICAicmVmZXJlbmNlX3ZhbHVlIiA6IDIuNDYxODM2MDc4NzAwNjA5OQogICAgICB9LAogICAgICB7CiAgICAgICAgICJmb3JjZV9jb25zdGFudCIgOiAzMDAsCiAgICAgICAgICJpIiA6IDE4NjI2LAogICAgICAgICAiaiIgOiAxOTM0MCwKICAgICAgICAgInJlZmVyZW5jZV92YWx1ZSIgOiAyLjQ1NzM2OTUzNzg5NDk0MTQKICAgICAgfSwKICAgICAgewogICAgICAgICAiZm9yY2VfY29uc3RhbnQiIDogMzAwLAogICAgICAgICAiaSIgOiAxODY3NywKICAgICAgICAgImoiIDogMTkzNDAsCiAgICAgICAgICJyZWZlcmVuY2VfdmFsdWUiIDogMi4zODE0NDk3MDY0Nzk4NTk0CiAgICAgIH0KICAgXQp9Cg==

>  <s_m_entry_id>  (1) 
2

>  <s_m_entry_name>  (1) 
5FQD_CK1a.1

>  <s_pdb_PDB_CLASSIFICATION>  (1) 
LIGASE

>  <s_pdb_PDB_ID>  (1) 
5FQD

>  <s_pdb_PDB_format_version>  (1) 
3.0

>  <s_ppw_entry_id_backup>  (1) 
3

>  <s_ppw_het_states>  (1) 
eJx9kkGPgjAQhf/KpNeF3XZsK+DNk1fj0Xgg6kkW9oAHY/zvdmzVl2KWhOTjQecxb+aqjGpoGy62bF1BvNsVtA23/tYFXW8J1GZsxyP9Hfu2Gy+NiJpO+7b7+R26Ba3K5dAfaD+c+zG8XNC6oS9WUksxGPhQTuoLz4Er4PrNTgMbYAaeAVtgBwy+Dnwd+Drw9eDrwdeDrwdf//CVh2eXqUHzbCpK0kMuOZDm8WAFUhWlGqQ6HtQTSX6DIbrMUTj9OEOQKUOTSX4iSSoMqafATSbV8JWd9Cicl49JSNAMQ0rzySQPbbvq5WhgimlQRgZSvtbYflrj8t895sce67DGtzvq7LG7

>  <s_ppw_prepared_with_version>  (1) 
2021-2

$$$$
