6XK9
     RDKit          3D

  0  0  0  0  0  0  0  0  0  0999 V3000
M  V30 BEGIN CTAB
M  V30 COUNTS 50 53 0 0 1
M  V30 BEGIN ATOM
M  V30 1 C 129.464000 116.373000 188.824000 0
M  V30 2 F 129.446000 110.410000 190.937000 0
M  V30 3 N 132.601000 115.823000 185.482000 0
M  V30 4 O 131.491000 117.813000 185.052000 0
M  V30 5 Cl 123.637000 107.688000 192.319000 0
M  V30 6 C 130.048000 115.196000 189.317000 0
M  V30 7 F 128.540000 110.656000 189.015000 0
M  V30 8 N 134.641000 114.148000 182.969000 0
M  V30 9 O 132.470000 113.831000 183.443000 0
M  V30 10 C 131.108000 114.609000 188.612000 0
M  V30 11 N 129.404000 113.096000 190.501000 0
M  V30 12 O 136.759000 114.269000 182.217000 0
M  V30 13 C 129.948000 116.970000 187.657000 0
M  V30 14 O 127.159000 112.933000 190.716000 0
M  V30 15 C 131.001000 116.368000 186.974000 0
M  V30 16 C 131.568000 115.197000 187.439000 0
M  V30 17 C 132.638000 114.771000 186.499000 0
M  V30 18 C 131.699000 116.801000 185.724000 0
M  V30 19 C 133.548000 115.856000 184.358000 0 CFG=1
M  V30 20 C 134.994000 116.154000 184.784000 0
M  V30 21 C 135.961000 116.115000 183.595000 0
M  V30 22 C 135.847000 114.757000 182.874000 0
M  V30 23 C 133.484000 114.517000 183.562000 0
M  V30 24 C 129.527000 114.554000 190.598000 0
M  V30 25 C 128.256000 112.397000 190.547000 0
M  V30 26 C 128.359000 110.873000 190.320000 0
M  V30 27 C 127.130000 110.106000 190.823000 0
M  V30 28 C 127.006000 109.816000 192.186000 0
M  V30 29 C 125.910000 109.099000 192.654000 0
M  V30 30 C 124.942000 108.659000 191.755000 0
M  V30 31 C 125.035000 108.971000 190.401000 0
M  V30 32 C 126.126000 109.700000 189.935000 0
M  V30 33 H 135.305000 115.438000 185.539000 0
M  V30 34 H 135.041000 117.123000 185.270000 0
M  V30 35 H 136.987000 116.267000 183.922000 0
M  V30 36 H 135.733000 116.909000 182.883000 0
M  V30 37 H 127.765000 110.134000 192.883000 0
M  V30 38 H 125.826000 108.862000 193.703000 0
M  V30 39 H 124.276000 108.633000 189.712000 0
M  V30 40 H 126.193000 109.929000 188.881000 0
M  V30 41 H 128.580000 115.020000 190.882000 0
M  V30 42 H 130.222000 114.780000 191.407000 0
M  V30 43 H 128.648000 116.838000 189.356000 0
M  V30 44 H 131.564000 113.699000 188.977000 0
M  V30 45 H 129.517000 117.894000 187.305000 0
M  V30 46 H 133.226000 116.629000 183.657000 0
M  V30 47 H 134.579000 113.271000 182.473000 0
M  V30 48 H 130.273000 112.583000 190.423000 0
M  V30 49 H 132.437000 113.791000 186.063000 0
M  V30 50 H 133.621000 114.722000 186.960000 0
M  V30 END ATOM
M  V30 BEGIN BOND
M  V30 1 2 6 1
M  V30 2 1 10 6
M  V30 3 1 13 1
M  V30 4 2 15 13
M  V30 5 2 16 10
M  V30 6 1 16 15
M  V30 7 1 17 3
M  V30 8 1 17 16
M  V30 9 1 18 3
M  V30 10 2 18 4
M  V30 11 1 18 15
M  V30 12 1 19 3
M  V30 13 1 20 19
M  V30 14 1 21 20
M  V30 15 1 22 8
M  V30 16 2 22 12
M  V30 17 1 22 21
M  V30 18 1 23 8
M  V30 19 2 23 9
M  V30 20 1 23 19
M  V30 21 1 24 6
M  V30 22 1 24 11
M  V30 23 1 25 11
M  V30 24 2 25 14
M  V30 25 1 26 2
M  V30 26 1 26 7
M  V30 27 1 26 25
M  V30 28 1 27 26
M  V30 29 2 28 27
M  V30 30 1 29 28
M  V30 31 1 30 5
M  V30 32 2 30 29
M  V30 33 1 31 30
M  V30 34 1 32 27
M  V30 35 2 32 31
M  V30 36 1 33 20
M  V30 37 1 34 20
M  V30 38 1 35 21
M  V30 39 1 36 21
M  V30 40 1 37 28
M  V30 41 1 38 29
M  V30 42 1 39 31
M  V30 43 1 40 32
M  V30 44 1 41 24
M  V30 45 1 42 24
M  V30 46 1 43 1
M  V30 47 1 44 10
M  V30 48 1 45 13
M  V30 49 1 19 46 CFG=3
M  V30 50 1 47 8
M  V30 51 1 48 11
M  V30 52 1 49 17
M  V30 53 1 50 17
M  V30 END BOND
M  V30 END CTAB
M  END
>  <i_m_Source_File_Index>  (1) 
1

>  <i_pdb_PDB_CRYST1_z>  (1) 
4

>  <r_pdb_PDB_CRYST1_a>  (1) 
157.61600000000001

>  <r_pdb_PDB_CRYST1_alpha>  (1) 
90

>  <r_pdb_PDB_CRYST1_b>  (1) 
112.041

>  <r_pdb_PDB_CRYST1_beta>  (1) 
95.790000000000006

>  <r_pdb_PDB_CRYST1_c>  (1) 
176.58199999999999

>  <r_pdb_PDB_CRYST1_gamma>  (1) 
90

>  <s_m_Source_File>  (1) 
6XK9-1_prepared_truncated_aligned.pdb

>  <s_m_Source_Path>  (1) 
/Users/johnss51/Data/Structures/GSPT1/6XK9-1

>  <s_m_entry_id>  (1) 
1

>  <s_m_entry_name>  (1) 
6XK9-1_prepared_truncated_aligned.1

>  <s_pdb_PDB_CLASSIFICATION>  (1) 
LIGASE

>  <s_pdb_PDB_CRYST1_Space_Group>  (1) 
P 1 2 1

>  <s_pdb_PDB_DEPOSITION_DATE>  (1) 
25-JUN-20

>  <s_pdb_PDB_EXPDTA>  (1) 
X-RAY DIFFRACTION

>  <s_pdb_PDB_ID>  (1) 
XXXX

>  <s_pdb_PDB_TITLE>  (1) 
CEREBLON IN COMPLEX WITH DDB1, CC-90009, AND GSPT1

>  <s_pdb_PDB_format_version>  (1) 
3.0

$$$$
