
  -OEChem-02052606112D

 22 23  0     1  0  0  0  0  0999 V2000
   21.2662   -5.0723    0.0000 C   0  0  0  0  0  0  0  0  0  0  0  0
   21.2650   -5.8919    0.0000 C   0  0  0  0  0  0  0  0  0  0  0  0
   21.9772   -6.2967    0.0000 C   0  0  0  0  0  0  0  0  0  0  0  0
   22.6869   -5.8914    0.0000 C   0  0  0  0  0  0  0  0  0  0  0  0
   22.6841   -5.0687    0.0000 C   0  0  0  0  0  0  0  0  0  0  0  0
   21.9754   -4.6593    0.0000 C   0  0  0  0  0  0  0  0  0  0  0  0
   23.3902   -4.6533    0.0000 C   0  0  0  0  0  0  0  0  0  0  0  0
   24.0995   -5.0634    0.0000 N   0  0  0  0  0  0  0  0  0  0  0  0
   23.3871   -3.8362    0.0000 O   0  0  0  0  0  0  0  0  0  0  0  0
   24.8056   -4.6480    0.0000 C   0  0  2  0  0  0  0  0  0  0  0  0
   25.5149   -5.0581    0.0000 C   0  0  0  0  0  0  0  0  0  0  0  0
   26.2210   -4.6427    0.0000 O   0  0  0  0  0  0  0  0  0  0  0  0
   25.5179   -5.8752    0.0000 O   0  0  0  0  0  0  0  0  0  0  0  0
   24.8025   -3.8308    0.0000 C   0  0  0  0  0  0  0  0  0  0  0  0
   25.5087   -3.4196    0.0000 C   0  0  0  0  0  0  0  0  0  0  0  0
   21.9770   -7.1180    0.0000 Cl  0  0  0  0  0  0  0  0  0  0  0  0
   20.5625   -4.6598    0.0000 Cl  0  0  0  0  0  0  0  0  0  0  0  0
   26.2188   -3.8288    0.0000 C   0  0  0  0  0  0  0  0  0  0  0  0
   26.9286   -3.4183    0.0000 C   0  0  0  0  0  0  0  0  0  0  0  0
   26.9256   -2.5968    0.0000 C   0  0  0  0  0  0  0  0  0  0  0  0
   26.2067   -2.1876    0.0000 C   0  0  0  0  0  0  0  0  0  0  0  0
   25.5040   -2.6047    0.0000 C   0  0  0  0  0  0  0  0  0  0  0  0
  1  2  2  0  0  0  0
  2  3  1  0  0  0  0
  3  4  2  0  0  0  0
  4  5  1  0  0  0  0
  5  6  2  0  0  0  0
  1  6  1  0  0  0  0
  5  7  1  0  0  0  0
  7  8  1  0  0  0  0
  7  9  2  0  0  0  0
  8 10  1  0  0  0  0
 10 11  1  0  0  0  0
 11 12  1  0  0  0  0
 11 13  2  0  0  0  0
 10 14  1  1  0  0  0
 14 15  1  0  0  0  0
  3 16  1  0  0  0  0
  1 17  1  0  0  0  0
 15 18  2  0  0  0  0
 18 19  1  0  0  0  0
 19 20  2  0  0  0  0
 20 21  1  0  0  0  0
 21 22  2  0  0  0  0
 15 22  1  0  0  0  0
M  END
> <index>
0

> <Title>

> <chembl_id>
CHEMBL4755654

$$$$

  -OEChem-02052606112D

 19 19  0     1  0  0  0  0  0999 V2000
    3.1146   -4.2799    0.0000 C   0  0  0  0  0  0  0  0  0  0  0  0
    3.1135   -5.0994    0.0000 C   0  0  0  0  0  0  0  0  0  0  0  0
    3.8215   -5.5084    0.0000 C   0  0  0  0  0  0  0  0  0  0  0  0
    4.5312   -5.0990    0.0000 C   0  0  0  0  0  0  0  0  0  0  0  0
    4.5284   -4.2763    0.0000 C   0  0  0  0  0  0  0  0  0  0  0  0
    3.8198   -3.8710    0.0000 C   0  0  0  0  0  0  0  0  0  0  0  0
    3.8213   -6.3256    0.0000 Cl  0  0  0  0  0  0  0  0  0  0  0  0
    2.4055   -5.5075    0.0000 Cl  0  0  0  0  0  0  0  0  0  0  0  0
    5.2345   -3.8650    0.0000 C   0  0  0  0  0  0  0  0  0  0  0  0
    5.9438   -4.2710    0.0000 N   0  0  0  0  0  0  0  0  0  0  0  0
    5.2315   -3.0479    0.0000 O   0  0  0  0  0  0  0  0  0  0  0  0
    6.6499   -3.8597    0.0000 C   0  0  2  0  0  0  0  0  0  0  0  0
    7.3592   -4.2656    0.0000 C   0  0  0  0  0  0  0  0  0  0  0  0
    8.0653   -3.8544    0.0000 O   0  0  0  0  0  0  0  0  0  0  0  0
    7.3623   -5.0828    0.0000 O   0  0  0  0  0  0  0  0  0  0  0  0
    6.6469   -3.0425    0.0000 C   0  0  0  0  0  0  0  0  0  0  0  0
    7.3530   -2.6313    0.0000 C   0  0  0  0  0  0  0  0  0  0  0  0
    7.3499   -1.8141    0.0000 C   0  0  0  0  0  0  0  0  0  0  0  0
    8.0623   -3.0372    0.0000 C   0  0  0  0  0  0  0  0  0  0  0  0
  1  2  2  0  0  0  0
  2  3  1  0  0  0  0
  3  4  2  0  0  0  0
  4  5  1  0  0  0  0
  5  6  2  0  0  0  0
  1  6  1  0  0  0  0
  3  7  1  0  0  0  0
  2  8  1  0  0  0  0
  5  9  1  0  0  0  0
  9 10  1  0  0  0  0
  9 11  2  0  0  0  0
 10 12  1  0  0  0  0
 12 13  1  0  0  0  0
 13 14  1  0  0  0  0
 13 15  2  0  0  0  0
 12 16  1  1  0  0  0
 16 17  1  0  0  0  0
 17 18  1  0  0  0  0
 17 19  1  0  0  0  0
M  END
> <index>
1

> <Title>

> <chembl_id>
CHEMBL4786857

$$$$

  -OEChem-02052606112D

 22 22  0     1  0  0  0  0  0999 V2000
   22.8350  -15.4826    0.0000 C   0  0  0  0  0  0  0  0  0  0  0  0
   22.8339  -16.3100    0.0000 C   0  0  0  0  0  0  0  0  0  0  0  0
   23.5486  -16.7227    0.0000 C   0  0  0  0  0  0  0  0  0  0  0  0
   24.2651  -16.3094    0.0000 C   0  0  0  0  0  0  0  0  0  0  0  0
   24.2623  -15.4789    0.0000 C   0  0  0  0  0  0  0  0  0  0  0  0
   23.5468  -15.0699    0.0000 C   0  0  0  0  0  0  0  0  0  0  0  0
   24.9751  -15.0638    0.0000 C   0  0  3  0  0  0  0  0  0  0  0  0
   25.6911  -15.4736    0.0000 N   0  0  0  0  0  0  0  0  0  0  0  0
   26.4039  -15.0585    0.0000 C   0  0  2  0  0  0  0  0  0  0  0  0
   27.1200  -15.4682    0.0000 C   0  0  0  0  0  0  0  0  0  0  0  0
   27.8328  -15.0530    0.0000 O   0  0  0  0  0  0  0  0  0  0  0  0
   27.1230  -16.2932    0.0000 O   0  0  0  0  0  0  0  0  0  0  0  0
   26.4008  -14.2335    0.0000 C   0  0  0  0  0  0  0  0  0  0  0  0
   27.1137  -13.8183    0.0000 C   0  0  0  0  0  0  0  0  0  0  0  0
   27.1106  -12.9933    0.0000 C   0  0  0  0  0  0  0  0  0  0  0  0
   27.8298  -14.2280    0.0000 C   0  0  0  0  0  0  0  0  0  0  0  0
   23.5484  -17.5477    0.0000 Cl  0  0  0  0  0  0  0  0  0  0  0  0
   22.1205  -15.0703    0.0000 Cl  0  0  0  0  0  0  0  0  0  0  0  0
   24.9720  -14.2388    0.0000 C   0  0  0  0  0  0  0  0  0  0  0  0
   25.6849  -13.8236    0.0000 F   0  0  0  0  0  0  0  0  0  0  0  0
   24.2560  -13.8291    0.0000 F   0  0  0  0  0  0  0  0  0  0  0  0
   24.9656  -13.4119    0.0000 F   0  0  0  0  0  0  0  0  0  0  0  0
  1  2  2  0  0  0  0
  2  3  1  0  0  0  0
  3  4  2  0  0  0  0
  4  5  1  0  0  0  0
  5  6  2  0  0  0  0
  1  6  1  0  0  0  0
  5  7  1  0  0  0  0
  7  8  1  0  0  0  0
  8  9  1  0  0  0  0
  9 10  1  0  0  0  0
 10 11  1  0  0  0  0
 10 12  2  0  0  0  0
  9 13  1  1  0  0  0
 13 14  1  0  0  0  0
 14 15  1  0  0  0  0
 14 16  1  0  0  0  0
  3 17  1  0  0  0  0
  1 18  1  0  0  0  0
  7 19  1  0  0  0  0
 19 20  1  0  0  0  0
 19 21  1  0  0  0  0
 19 22  1  0  0  0  0
M  END
> <index>
2

> <Title>

> <chembl_id>
CHEMBL4791318

$$$$

  -OEChem-02052606112D

 13 13  0     0  0  0  0  0  0999 V2000
    0.7403    2.0794    0.0000 O   0  0  0  0  0  0  0  0  0  0  0  0
   -0.6886    2.0794    0.0000 O   0  0  0  0  0  0  0  0  0  0  0  0
    0.6933    0.3570    0.0000 N   0  0  0  0  0  0  0  0  0  0  0  0
    0.4383   -0.4276    0.0000 N   0  0  0  0  0  0  0  0  0  0  0  0
   -0.3867   -0.4276    0.0000 C   0  0  0  0  0  0  0  0  0  0  0  0
    0.0258    0.8419    0.0000 C   0  0  0  0  0  0  0  0  0  0  0  0
   -0.8716   -1.0951    0.0000 C   0  0  0  0  0  0  0  0  0  0  0  0
   -0.6416    0.3570    0.0000 C   0  0  0  0  0  0  0  0  0  0  0  0
    0.0258    1.6669    0.0000 C   0  0  0  0  0  0  0  0  0  0  0  0
    1.4779    0.6119    0.0000 C   0  0  0  0  0  0  0  0  0  0  0  0
   -1.3565   -1.7625    0.0000 C   0  0  0  0  0  0  0  0  0  0  0  0
   -1.5390   -0.6102    0.0000 C   0  0  0  0  0  0  0  0  0  0  0  0
   -0.2041   -1.5800    0.0000 C   0  0  0  0  0  0  0  0  0  0  0  0
  1  9  2  0  0  0  0
  2  9  1  0  0  0  0
  3  4  1  0  0  0  0
  3  6  1  0  0  0  0
  3 10  1  0  0  0  0
  4  5  2  0  0  0  0
  5  7  1  0  0  0  0
  5  8  1  0  0  0  0
  6  8  2  0  0  0  0
  6  9  1  0  0  0  0
  7 11  1  0  0  0  0
  7 12  1  0  0  0  0
  7 13  1  0  0  0  0
M  END
> <index>
3

> <Title>

> <chembl_id>
CHEMBL1359408

$$$$

  -OEChem-02052606112D

 21 22  0     1  0  0  0  0  0999 V2000
   18.0593   -7.8954    0.0000 C   0  0  0  0  0  0  0  0  0  0  0  0
   18.0582   -8.7149    0.0000 C   0  0  0  0  0  0  0  0  0  0  0  0
   18.7662   -9.1239    0.0000 C   0  0  0  0  0  0  0  0  0  0  0  0
   18.7644   -7.4865    0.0000 C   0  0  0  0  0  0  0  0  0  0  0  0
   19.4731   -7.8918    0.0000 C   0  0  0  0  0  0  0  0  0  0  0  0
   19.4738   -8.7108    0.0000 C   0  0  0  0  0  0  0  0  0  0  0  0
   20.1824   -9.1178    0.0000 N   0  0  0  0  0  0  0  0  0  0  0  0
   20.8906   -8.7070    0.0000 C   0  0  0  0  0  0  0  0  0  0  0  0
   20.8859   -7.8849    0.0000 C   0  0  0  0  0  0  0  0  0  0  0  0
   20.1768   -7.4815    0.0000 N   0  0  0  0  0  0  0  0  0  0  0  0
   21.5911   -7.4720    0.0000 C   0  0  0  0  0  0  0  0  0  0  0  0
   22.3013   -7.8763    0.0000 N   0  0  0  0  0  0  0  0  0  0  0  0
   21.5861   -6.6548    0.0000 O   0  0  0  0  0  0  0  0  0  0  0  0
   23.0065   -7.4634    0.0000 C   0  0  1  0  0  0  0  0  0  0  0  0
   23.7167   -7.8677    0.0000 C   0  0  0  0  0  0  0  0  0  0  0  0
   23.0015   -6.6462    0.0000 C   0  0  0  0  0  0  0  0  0  0  0  0
   23.7067   -6.2333    0.0000 O   0  0  0  0  0  0  0  0  0  0  0  0
   22.2913   -6.2419    0.0000 O   0  0  0  0  0  0  0  0  0  0  0  0
   23.7216   -8.6848    0.0000 C   0  0  0  0  0  0  0  0  0  0  0  0
   24.4318   -9.0891    0.0000 C   0  0  0  0  0  0  0  0  0  0  0  0
   23.0164   -9.0977    0.0000 C   0  0  0  0  0  0  0  0  0  0  0  0
  1  2  2  0  0  0  0
  2  3  1  0  0  0  0
  3  6  2  0  0  0  0
  4  5  2  0  0  0  0
  1  4  1  0  0  0  0
  5  6  1  0  0  0  0
  6  7  1  0  0  0  0
  7  8  2  0  0  0  0
  8  9  1  0  0  0  0
  9 10  2  0  0  0  0
  5 10  1  0  0  0  0
  9 11  1  0  0  0  0
 11 12  1  0  0  0  0
 11 13  2  0  0  0  0
 14 12  1  6  0  0  0
 14 15  1  0  0  0  0
 14 16  1  0  0  0  0
 16 17  2  0  0  0  0
 16 18  1  0  0  0  0
 15 19  1  0  0  0  0
 19 20  1  0  0  0  0
 19 21  1  0  0  0  0
M  END
> <index>
4

> <Title>

> <chembl_id>
CHEMBL3930223

$$$$

  -OEChem-02052606112D

 22 22  0     1  0  0  0  0  0999 V2000
    6.2362  -13.2732    0.0000 C   0  0  0  0  0  0  0  0  0  0  0  0
    5.8318  -12.5633    0.0000 C   0  0  0  0  0  0  0  0  0  0  0  0
    5.4187  -13.2706    0.0000 C   0  0  0  0  0  0  0  0  0  0  0  0
    6.5429  -12.1484    0.0000 C   0  0  0  0  0  0  0  0  0  0  0  0
    7.2562  -12.5584    0.0000 N   0  0  0  0  0  0  0  0  0  0  0  0
    6.5398  -11.3271    0.0000 O   0  0  0  0  0  0  0  0  0  0  0  0
    7.9624  -12.1431    0.0000 C   0  0  2  0  0  0  0  0  0  0  0  0
    8.6758  -12.5531    0.0000 C   0  0  0  0  0  0  0  0  0  0  0  0
    9.3861  -12.1377    0.0000 O   0  0  0  0  0  0  0  0  0  0  0  0
    8.6789  -13.3744    0.0000 O   0  0  0  0  0  0  0  0  0  0  0  0
    7.9593  -11.3217    0.0000 C   0  0  0  0  0  0  0  0  0  0  0  0
    8.6696  -10.9105    0.0000 C   0  0  0  0  0  0  0  0  0  0  0  0
    8.6665  -10.0892    0.0000 C   0  0  0  0  0  0  0  0  0  0  0  0
    9.3830  -11.3164    0.0000 C   0  0  0  0  0  0  0  0  0  0  0  0
    5.1192  -12.1537    0.0000 C   0  0  0  0  0  0  0  0  0  0  0  0
    4.4089  -12.5691    0.0000 C   0  0  0  0  0  0  0  0  0  0  0  0
    3.6980  -12.1561    0.0000 C   0  0  0  0  0  0  0  0  0  0  0  0
    2.9882  -12.5708    0.0000 C   0  0  0  0  0  0  0  0  0  0  0  0
    2.9908  -13.3930    0.0000 C   0  0  0  0  0  0  0  0  0  0  0  0
    3.7091  -13.7987    0.0000 C   0  0  0  0  0  0  0  0  0  0  0  0
    4.4160  -13.3858    0.0000 C   0  0  0  0  0  0  0  0  0  0  0  0
    2.2811  -13.8052    0.0000 Cl  0  0  0  0  0  0  0  0  0  0  0  0
  1  2  1  0  0  0  0
  2  3  1  0  0  0  0
  2  4  1  0  0  0  0
  4  5  1  0  0  0  0
  4  6  2  0  0  0  0
  5  7  1  0  0  0  0
  7  8  1  0  0  0  0
  8  9  1  0  0  0  0
  8 10  2  0  0  0  0
  7 11  1  1  0  0  0
 11 12  1  0  0  0  0
 12 13  1  0  0  0  0
 12 14  1  0  0  0  0
  2 15  1  0  0  0  0
 15 16  1  0  0  0  0
 16 17  2  0  0  0  0
 17 18  1  0  0  0  0
 18 19  2  0  0  0  0
 19 20  1  0  0  0  0
 20 21  2  0  0  0  0
 16 21  1  0  0  0  0
 19 22  1  0  0  0  0
M  END
> <index>
5

> <Title>

> <chembl_id>
CHEMBL4763573

$$$$

  -OEChem-02052606112D

 21 21  0     1  0  0  0  0  0999 V2000
    3.6636  -13.7024    0.0000 C   0  0  0  0  0  0  0  0  0  0  0  0
    3.6624  -14.5260    0.0000 C   0  0  0  0  0  0  0  0  0  0  0  0
    4.3787  -14.9350    0.0000 C   0  0  0  0  0  0  0  0  0  0  0  0
    5.0884  -14.5256    0.0000 C   0  0  0  0  0  0  0  0  0  0  0  0
    5.0855  -13.6988    0.0000 C   0  0  0  0  0  0  0  0  0  0  0  0
    4.3769  -13.2894    0.0000 C   0  0  0  0  0  0  0  0  0  0  0  0
    5.8000  -13.2834    0.0000 C   0  0  0  0  0  0  0  0  0  0  0  0
    6.5092  -13.6934    0.0000 N   0  0  0  0  0  0  0  0  0  0  0  0
    5.7969  -12.4621    0.0000 O   0  0  0  0  0  0  0  0  0  0  0  0
    7.2195  -13.2780    0.0000 C   0  0  2  0  0  0  0  0  0  0  0  0
    7.9329  -13.6881    0.0000 C   0  0  0  0  0  0  0  0  0  0  0  0
    8.6432  -13.2727    0.0000 O   0  0  0  0  0  0  0  0  0  0  0  0
    7.9360  -14.5094    0.0000 O   0  0  0  0  0  0  0  0  0  0  0  0
    7.2164  -12.4567    0.0000 C   0  0  0  0  0  0  0  0  0  0  0  0
    7.9267  -12.0413    0.0000 O   0  0  0  0  0  0  0  0  0  0  0  0
    4.3785  -15.7604    0.0000 Cl  0  0  0  0  0  0  0  0  0  0  0  0
    2.9558  -13.2898    0.0000 Cl  0  0  0  0  0  0  0  0  0  0  0  0
    7.9233  -11.2407    0.0000 C   0  0  0  0  0  0  0  0  0  0  0  0
    8.6170  -10.8374    0.0000 C   0  0  0  0  0  0  0  0  0  0  0  0
    7.2304  -10.8433    0.0000 C   0  0  0  0  0  0  0  0  0  0  0  0
    7.9160  -10.4378    0.0000 C   0  0  0  0  0  0  0  0  0  0  0  0
  1  2  2  0  0  0  0
  2  3  1  0  0  0  0
  3  4  2  0  0  0  0
  4  5  1  0  0  0  0
  5  6  2  0  0  0  0
  1  6  1  0  0  0  0
  5  7  1  0  0  0  0
  7  8  1  0  0  0  0
  7  9  2  0  0  0  0
  8 10  1  0  0  0  0
 10 11  1  0  0  0  0
 11 12  1  0  0  0  0
 11 13  2  0  0  0  0
 10 14  1  1  0  0  0
 14 15  1  0  0  0  0
  3 16  1  0  0  0  0
  1 17  1  0  0  0  0
 15 18  1  0  0  0  0
 18 19  1  0  0  0  0
 18 20  1  0  0  0  0
 18 21  1  0  0  0  0
M  END
> <index>
6

> <Title>

> <chembl_id>
CHEMBL4750083

$$$$

  -OEChem-02052606112D

 26 27  0     1  0  0  0  0  0999 V2000
   19.1564  -23.8389    0.0000 C   0  0  1  0  0  0  0  0  0  0  0  0
   19.8683  -24.2475    0.0000 C   0  0  0  0  0  0  0  0  0  0  0  0
   20.5760  -23.8389    0.0000 O   0  0  0  0  0  0  0  0  0  0  0  0
   19.8683  -25.0688    0.0000 O   0  0  0  0  0  0  0  0  0  0  0  0
   18.4446  -24.2475    0.0000 N   0  0  0  0  0  0  0  0  0  0  0  0
   17.7327  -23.8389    0.0000 C   0  0  0  0  0  0  0  0  0  0  0  0
   17.0209  -24.2475    0.0000 C   0  0  0  0  0  0  0  0  0  0  0  0
   17.7327  -23.0176    0.0000 O   0  0  0  0  0  0  0  0  0  0  0  0
   19.1564  -23.0176    0.0000 C   0  0  0  0  0  0  0  0  0  0  0  0
   19.8683  -22.6048    0.0000 C   0  0  0  0  0  0  0  0  0  0  0  0
   19.8683  -21.7835    0.0000 C   0  0  0  0  0  0  0  0  0  0  0  0
   20.5760  -21.3749    0.0000 C   0  0  0  0  0  0  0  0  0  0  0  0
   19.1564  -21.3749    0.0000 C   0  0  0  0  0  0  0  0  0  0  0  0
   19.8602  -20.9581    0.0000 C   0  0  0  0  0  0  0  0  0  0  0  0
   16.3096  -23.8358    0.0000 C   0  0  0  0  0  0  0  0  0  0  0  0
   15.5983  -24.2437    0.0000 N   0  0  0  0  0  0  0  0  0  0  0  0
   15.5978  -25.0659    0.0000 C   0  0  0  0  0  0  0  0  0  0  0  0
   16.3147  -25.4784    0.0000 C   0  0  0  0  0  0  0  0  0  0  0  0
   17.0231  -25.0640    0.0000 C   0  0  0  0  0  0  0  0  0  0  0  0
   14.8866  -25.4795    0.0000 O   0  0  0  0  0  0  0  0  0  0  0  0
   14.1783  -25.0677    0.0000 C   0  0  0  0  0  0  0  0  0  0  0  0
   14.1812  -24.2484    0.0000 C   0  0  0  0  0  0  0  0  0  0  0  0
   13.4697  -23.8409    0.0000 C   0  0  0  0  0  0  0  0  0  0  0  0
   12.7574  -24.2505    0.0000 C   0  0  0  0  0  0  0  0  0  0  0  0
   12.7612  -25.0760    0.0000 C   0  0  0  0  0  0  0  0  0  0  0  0
   13.4733  -25.4840    0.0000 C   0  0  0  0  0  0  0  0  0  0  0  0
  1  2  1  0  0  0  0
  2  3  1  0  0  0  0
  2  4  2  0  0  0  0
  1  5  1  0  0  0  0
  5  6  1  0  0  0  0
  6  7  1  0  0  0  0
  6  8  2  0  0  0  0
  1  9  1  1  0  0  0
  9 10  1  0  0  0  0
 10 11  1  0  0  0  0
 11 12  1  0  0  0  0
 11 13  1  0  0  0  0
 11 14  1  0  0  0  0
  7 15  2  0  0  0  0
 15 16  1  0  0  0  0
 16 17  2  0  0  0  0
 17 18  1  0  0  0  0
 18 19  2  0  0  0  0
  7 19  1  0  0  0  0
 17 20  1  0  0  0  0
 20 21  1  0  0  0  0
 21 22  2  0  0  0  0
 22 23  1  0  0  0  0
 23 24  2  0  0  0  0
 24 25  1  0  0  0  0
 25 26  2  0  0  0  0
 21 26  1  0  0  0  0
M  END
> <index>
7

> <Title>

> <chembl_id>
CHEMBL4752312

$$$$

  -OEChem-02052606112D

 19 19  0     1  0  0  0  0  0999 V2000
   11.7447   -4.5894    0.0000 C   0  0  0  0  0  0  0  0  0  0  0  0
   11.7435   -5.4090    0.0000 C   0  0  0  0  0  0  0  0  0  0  0  0
   12.4516   -5.8179    0.0000 C   0  0  0  0  0  0  0  0  0  0  0  0
   13.1612   -5.4085    0.0000 C   0  0  0  0  0  0  0  0  0  0  0  0
   13.1584   -4.5858    0.0000 C   0  0  0  0  0  0  0  0  0  0  0  0
   12.4498   -4.1806    0.0000 C   0  0  0  0  0  0  0  0  0  0  0  0
   13.8646   -4.1746    0.0000 C   0  0  0  0  0  0  0  0  0  0  0  0
   14.5738   -4.5805    0.0000 N   0  0  0  0  0  0  0  0  0  0  0  0
   13.8615   -3.3574    0.0000 O   0  0  0  0  0  0  0  0  0  0  0  0
   15.2800   -4.1692    0.0000 C   0  0  2  0  0  0  0  0  0  0  0  0
   15.9892   -4.5752    0.0000 C   0  0  0  0  0  0  0  0  0  0  0  0
   16.6954   -4.1639    0.0000 O   0  0  0  0  0  0  0  0  0  0  0  0
   15.9923   -5.3924    0.0000 O   0  0  0  0  0  0  0  0  0  0  0  0
   15.2769   -3.3521    0.0000 C   0  0  0  0  0  0  0  0  0  0  0  0
   15.9831   -2.9408    0.0000 C   0  0  0  0  0  0  0  0  0  0  0  0
   15.9800   -2.1236    0.0000 C   0  0  0  0  0  0  0  0  0  0  0  0
   16.6923   -3.3467    0.0000 C   0  0  0  0  0  0  0  0  0  0  0  0
   12.4514   -6.6351    0.0000 Cl  0  0  0  0  0  0  0  0  0  0  0  0
   11.0369   -4.1810    0.0000 Cl  0  0  0  0  0  0  0  0  0  0  0  0
  1  2  2  0  0  0  0
  2  3  1  0  0  0  0
  3  4  2  0  0  0  0
  4  5  1  0  0  0  0
  5  6  2  0  0  0  0
  1  6  1  0  0  0  0
  5  7  1  0  0  0  0
  7  8  1  0  0  0  0
  7  9  2  0  0  0  0
  8 10  1  0  0  0  0
 10 11  1  0  0  0  0
 11 12  1  0  0  0  0
 11 13  2  0  0  0  0
 10 14  1  1  0  0  0
 14 15  1  0  0  0  0
 15 16  1  0  0  0  0
 15 17  1  0  0  0  0
  3 18  1  0  0  0  0
  1 19  1  0  0  0  0
M  END
> <index>
8

> <Title>

> <chembl_id>
CHEMBL4789084

$$$$

  -OEChem-02052606112D

 24 26  0     0  0  0  0  0  0999 V2000
    5.8966  -21.4577    0.0000 C   0  0  0  0  0  0  0  0  0  0  0  0
    5.6820  -22.2460    0.0000 N   0  0  0  0  0  0  0  0  0  0  0  0
    6.3654  -22.6937    0.0000 N   0  0  0  0  0  0  0  0  0  0  0  0
    7.0024  -22.1821    0.0000 C   0  0  0  0  0  0  0  0  0  0  0  0
    6.7126  -21.4183    0.0000 C   0  0  0  0  0  0  0  0  0  0  0  0
    7.7909  -22.3967    0.0000 C   0  0  0  0  0  0  0  0  0  0  0  0
    7.9993  -23.1869    0.0000 O   0  0  0  0  0  0  0  0  0  0  0  0
    8.3711  -21.8212    0.0000 O   0  0  0  0  0  0  0  0  0  0  0  0
    6.4048  -23.5100    0.0000 C   0  0  0  0  0  0  0  0  0  0  0  0
    5.7177  -23.9523    0.0000 C   0  0  0  0  0  0  0  0  0  0  0  0
    4.9938  -23.5750    0.0000 C   0  0  0  0  0  0  0  0  0  0  0  0
    4.3071  -24.0165    0.0000 N   0  0  0  0  0  0  0  0  0  0  0  0
    4.3461  -24.8337    0.0000 C   0  0  0  0  0  0  0  0  0  0  0  0
    5.0777  -25.2072    0.0000 C   0  0  0  0  0  0  0  0  0  0  0  0
    5.7614  -24.7634    0.0000 C   0  0  0  0  0  0  0  0  0  0  0  0
    5.4810  -20.7476    0.0000 C   0  0  0  0  0  0  0  0  0  0  0  0
    5.8853  -20.0374    0.0000 C   0  0  0  0  0  0  0  0  0  0  0  0
    4.6638  -20.7524    0.0000 C   0  0  0  0  0  0  0  0  0  0  0  0
    5.0682  -20.0377    0.0000 C   0  0  0  0  0  0  0  0  0  0  0  0
    3.6596  -25.2769    0.0000 N   0  0  0  0  0  0  0  0  0  0  0  0
    2.8955  -24.9833    0.0000 N   0  0  0  0  0  0  0  0  0  0  0  0
    2.3795  -25.6169    0.0000 C   0  0  0  0  0  0  0  0  0  0  0  0
    2.8228  -26.3035    0.0000 C   0  0  0  0  0  0  0  0  0  0  0  0
    3.6126  -26.0941    0.0000 C   0  0  0  0  0  0  0  0  0  0  0  0
  1  2  2  0  0  0  0
  2  3  1  0  0  0  0
  3  4  1  0  0  0  0
  4  5  2  0  0  0  0
  1  5  1  0  0  0  0
  4  6  1  0  0  0  0
  6  7  2  0  0  0  0
  6  8  1  0  0  0  0
  3  9  1  0  0  0  0
  9 10  1  0  0  0  0
 10 11  2  0  0  0  0
 11 12  1  0  0  0  0
 12 13  2  0  0  0  0
 13 14  1  0  0  0  0
 14 15  2  0  0  0  0
 10 15  1  0  0  0  0
  1 16  1  0  0  0  0
 16 17  1  0  0  0  0
 16 18  1  0  0  0  0
 16 19  1  0  0  0  0
 13 20  1  0  0  0  0
 20 21  1  0  0  0  0
 21 22  2  0  0  0  0
 22 23  1  0  0  0  0
 23 24  2  0  0  0  0
 20 24  1  0  0  0  0
M  END
> <index>
9

> <Title>

> <chembl_id>
CHEMBL4789976

$$$$

  -OEChem-02052606112D

 20 20  0     1  0  0  0  0  0999 V2000
    3.3994   -4.8990    0.0000 C   0  0  0  0  0  0  0  0  0  0  0  0
    3.3983   -5.7185    0.0000 C   0  0  0  0  0  0  0  0  0  0  0  0
    4.1063   -6.1275    0.0000 C   0  0  0  0  0  0  0  0  0  0  0  0
    4.8160   -5.7180    0.0000 C   0  0  0  0  0  0  0  0  0  0  0  0
    4.8132   -4.8954    0.0000 C   0  0  0  0  0  0  0  0  0  0  0  0
    4.1045   -4.4901    0.0000 C   0  0  0  0  0  0  0  0  0  0  0  0
    5.5193   -4.4841    0.0000 C   0  0  0  0  0  0  0  0  0  0  0  0
    6.2286   -4.8901    0.0000 N   0  0  0  0  0  0  0  0  0  0  0  0
    5.5162   -3.6669    0.0000 O   0  0  0  0  0  0  0  0  0  0  0  0
    6.9347   -4.4788    0.0000 C   0  0  2  0  0  0  0  0  0  0  0  0
    7.6440   -4.8847    0.0000 C   0  0  0  0  0  0  0  0  0  0  0  0
    8.3501   -4.4735    0.0000 O   0  0  0  0  0  0  0  0  0  0  0  0
    7.6470   -5.7019    0.0000 O   0  0  0  0  0  0  0  0  0  0  0  0
    6.9316   -3.6616    0.0000 C   0  0  0  0  0  0  0  0  0  0  0  0
    7.6378   -3.2503    0.0000 C   0  0  0  0  0  0  0  0  0  0  0  0
    4.1061   -6.9447    0.0000 Cl  0  0  0  0  0  0  0  0  0  0  0  0
    2.6916   -4.4906    0.0000 Cl  0  0  0  0  0  0  0  0  0  0  0  0
    8.3470   -3.6563    0.0000 C   0  0  0  0  0  0  0  0  0  0  0  0
    7.6347   -2.4332    0.0000 C   0  0  0  0  0  0  0  0  0  0  0  0
    8.3411   -2.8354    0.0000 C   0  0  0  0  0  0  0  0  0  0  0  0
  1  2  2  0  0  0  0
  2  3  1  0  0  0  0
  3  4  2  0  0  0  0
  4  5  1  0  0  0  0
  5  6  2  0  0  0  0
  1  6  1  0  0  0  0
  5  7  1  0  0  0  0
  7  8  1  0  0  0  0
  7  9  2  0  0  0  0
  8 10  1  0  0  0  0
 10 11  1  0  0  0  0
 11 12  1  0  0  0  0
 11 13  2  0  0  0  0
 10 14  1  1  0  0  0
 14 15  1  0  0  0  0
  3 16  1  0  0  0  0
  1 17  1  0  0  0  0
 15 18  1  0  0  0  0
 15 19  1  0  0  0  0
 15 20  1  0  0  0  0
M  END
> <index>
10

> <Title>

> <chembl_id>
CHEMBL4759392

$$$$

  -OEChem-02052606112D

 21 23  0     1  0  0  0  0  0999 V2000
   12.3638   -4.8329    0.0000 C   0  0  0  0  0  0  0  0  0  0  0  0
   12.3626   -5.6731    0.0000 C   0  0  0  0  0  0  0  0  0  0  0  0
   13.0913   -6.0903    0.0000 C   0  0  0  0  0  0  0  0  0  0  0  0
   13.8175   -5.6726    0.0000 C   0  0  0  0  0  0  0  0  0  0  0  0
   13.8146   -4.8293    0.0000 C   0  0  0  0  0  0  0  0  0  0  0  0
   13.0895   -4.4117    0.0000 C   0  0  0  0  0  0  0  0  0  0  0  0
   14.5414   -4.4057    0.0000 C   0  0  0  0  0  0  0  0  0  0  0  0
   15.2672   -4.8240    0.0000 N   0  0  0  0  0  0  0  0  0  0  0  0
   14.5384   -3.5679    0.0000 O   0  0  0  0  0  0  0  0  0  0  0  0
   15.9899   -4.4004    0.0000 C   0  0  2  0  0  0  0  0  0  0  0  0
   16.7197   -4.8187    0.0000 C   0  0  0  0  0  0  0  0  0  0  0  0
   17.4424   -4.3950    0.0000 O   0  0  0  0  0  0  0  0  0  0  0  0
   16.7228   -5.6565    0.0000 O   0  0  0  0  0  0  0  0  0  0  0  0
   15.9868   -3.5626    0.0000 C   0  0  0  0  0  0  0  0  0  0  0  0
   16.7136   -3.1389    0.0000 C   0  0  0  0  0  0  0  0  0  0  0  0
   13.0911   -6.9323    0.0000 Cl  0  0  0  0  0  0  0  0  0  0  0  0
   11.6394   -4.4121    0.0000 Cl  0  0  0  0  0  0  0  0  0  0  0  0
   17.5213   -3.3577    0.0000 C   0  0  0  0  0  0  0  0  0  0  0  0
   17.7339   -2.5469    0.0000 C   0  0  0  0  0  0  0  0  0  0  0  0
   16.9232   -2.3301    0.0000 C   0  0  0  0  0  0  0  0  0  0  0  0
   17.2683   -3.0624    0.0000 C   0  0  0  0  0  0  0  0  0  0  0  0
  1  2  2  0  0  0  0
  2  3  1  0  0  0  0
  3  4  2  0  0  0  0
  4  5  1  0  0  0  0
  5  6  2  0  0  0  0
  1  6  1  0  0  0  0
  5  7  1  0  0  0  0
  7  8  1  0  0  0  0
  7  9  2  0  0  0  0
  8 10  1  0  0  0  0
 10 11  1  0  0  0  0
 11 12  1  0  0  0  0
 11 13  2  0  0  0  0
 10 14  1  1  0  0  0
 14 15  1  0  0  0  0
  3 16  1  0  0  0  0
  1 17  1  0  0  0  0
 15 18  1  0  0  0  0
 18 19  1  0  0  0  0
 19 20  1  0  0  0  0
 15 20  1  0  0  0  0
 15 21  1  0  0  0  0
 19 21  1  0  0  0  0
M  END
> <index>
11

> <Title>

> <chembl_id>
CHEMBL4745635

$$$$

  -OEChem-02052606112D

 20 21  0     0  0  0  0  0  0999 V2000
    4.8400   -3.5290    0.0000 C   0  0  0  0  0  0  0  0  0  0  0  0
    4.6254   -4.3173    0.0000 N   0  0  0  0  0  0  0  0  0  0  0  0
    5.3088   -4.7650    0.0000 N   0  0  0  0  0  0  0  0  0  0  0  0
    5.9459   -4.2534    0.0000 C   0  0  0  0  0  0  0  0  0  0  0  0
    5.6561   -3.4896    0.0000 C   0  0  0  0  0  0  0  0  0  0  0  0
    6.7344   -4.4681    0.0000 C   0  0  0  0  0  0  0  0  0  0  0  0
    6.9427   -5.2582    0.0000 O   0  0  0  0  0  0  0  0  0  0  0  0
    7.3145   -3.8925    0.0000 O   0  0  0  0  0  0  0  0  0  0  0  0
    5.3483   -5.5813    0.0000 C   0  0  0  0  0  0  0  0  0  0  0  0
    4.4244   -2.8189    0.0000 C   0  0  0  0  0  0  0  0  0  0  0  0
    4.8288   -2.1088    0.0000 C   0  0  0  0  0  0  0  0  0  0  0  0
    3.6072   -2.8238    0.0000 C   0  0  0  0  0  0  0  0  0  0  0  0
    4.0117   -2.1090    0.0000 C   0  0  0  0  0  0  0  0  0  0  0  0
    4.6611   -6.0236    0.0000 C   0  0  0  0  0  0  0  0  0  0  0  0
    4.7006   -6.8398    0.0000 C   0  0  0  0  0  0  0  0  0  0  0  0
    4.0121   -7.2801    0.0000 C   0  0  0  0  0  0  0  0  0  0  0  0
    4.0511   -8.0956    0.0000 C   0  0  0  0  0  0  0  0  0  0  0  0
    4.7783   -8.4703    0.0000 C   0  0  0  0  0  0  0  0  0  0  0  0
    5.4676   -8.0236    0.0000 C   0  0  0  0  0  0  0  0  0  0  0  0
    5.4251   -7.2096    0.0000 C   0  0  0  0  0  0  0  0  0  0  0  0
  1  2  2  0  0  0  0
  2  3  1  0  0  0  0
  3  4  1  0  0  0  0
  4  5  2  0  0  0  0
  1  5  1  0  0  0  0
  4  6  1  0  0  0  0
  6  7  2  0  0  0  0
  6  8  1  0  0  0  0
  3  9  1  0  0  0  0
  1 10  1  0  0  0  0
 10 11  1  0  0  0  0
 10 12  1  0  0  0  0
 10 13  1  0  0  0  0
  9 14  1  0  0  0  0
 14 15  1  0  0  0  0
 15 16  2  0  0  0  0
 16 17  1  0  0  0  0
 17 18  2  0  0  0  0
 18 19  1  0  0  0  0
 19 20  2  0  0  0  0
 15 20  1  0  0  0  0
M  END
> <index>
12

> <Title>

> <chembl_id>
CHEMBL4753027

$$$$

  -OEChem-02052606112D

 26 27  0     1  0  0  0  0  0999 V2000
    6.4104  -19.6667    0.0000 C   0  0  3  0  0  0  0  0  0  0  0  0
    7.1166  -19.2555    0.0000 C   0  0  0  0  0  0  0  0  0  0  0  0
    7.8299  -19.6614    0.0000 N   0  0  0  0  0  0  0  0  0  0  0  0
    7.1135  -18.4342    0.0000 O   0  0  0  0  0  0  0  0  0  0  0  0
    8.5402  -19.2501    0.0000 C   0  0  2  0  0  0  0  0  0  0  0  0
    9.2536  -19.6561    0.0000 C   0  0  0  0  0  0  0  0  0  0  0  0
    9.9639  -19.2448    0.0000 O   0  0  0  0  0  0  0  0  0  0  0  0
    9.2567  -20.4774    0.0000 O   0  0  0  0  0  0  0  0  0  0  0  0
    8.5371  -18.4288    0.0000 C   0  0  0  0  0  0  0  0  0  0  0  0
    9.2474  -18.0134    0.0000 C   0  0  0  0  0  0  0  0  0  0  0  0
    9.2443  -17.1921    0.0000 C   0  0  0  0  0  0  0  0  0  0  0  0
    9.9608  -18.4235    0.0000 C   0  0  0  0  0  0  0  0  0  0  0  0
    5.6999  -19.2621    0.0000 O   0  0  0  0  0  0  0  0  0  0  0  0
    4.9959  -19.6698    0.0000 C   0  0  0  0  0  0  0  0  0  0  0  0
    4.9947  -20.4874    0.0000 C   0  0  0  0  0  0  0  0  0  0  0  0
    5.7038  -20.8955    0.0000 N   0  0  3  0  0  0  0  0  0  0  0  0
    6.4141  -20.4860    0.0000 C   0  0  0  0  0  0  0  0  0  0  0  0
    5.7041  -21.7127    0.0000 C   0  0  0  0  0  0  0  0  0  0  0  0
    4.9966  -22.1215    0.0000 C   0  0  0  0  0  0  0  0  0  0  0  0
    4.2937  -21.7098    0.0000 C   0  0  0  0  0  0  0  0  0  0  0  0
    3.5866  -22.1180    0.0000 C   0  0  0  0  0  0  0  0  0  0  0  0
    3.5864  -22.9361    0.0000 C   0  0  0  0  0  0  0  0  0  0  0  0
    4.2993  -23.3442    0.0000 C   0  0  0  0  0  0  0  0  0  0  0  0
    5.0034  -22.9337    0.0000 C   0  0  0  0  0  0  0  0  0  0  0  0
    4.3025  -24.1614    0.0000 Cl  0  0  0  0  0  0  0  0  0  0  0  0
    2.8789  -21.7093    0.0000 Cl  0  0  0  0  0  0  0  0  0  0  0  0
  1  2  1  0  0  0  0
  2  3  1  0  0  0  0
  2  4  2  0  0  0  0
  3  5  1  0  0  0  0
  5  6  1  0  0  0  0
  6  7  1  0  0  0  0
  6  8  2  0  0  0  0
  5  9  1  1  0  0  0
  9 10  1  0  0  0  0
 10 11  1  0  0  0  0
 10 12  1  0  0  0  0
  1 13  1  0  0  0  0
  1 17  1  0  0  0  0
 13 14  1  0  0  0  0
 14 15  1  0  0  0  0
 15 16  1  0  0  0  0
 16 17  1  0  0  0  0
 16 18  1  0  0  0  0
 18 19  1  0  0  0  0
 19 20  2  0  0  0  0
 20 21  1  0  0  0  0
 21 22  2  0  0  0  0
 22 23  1  0  0  0  0
 23 24  2  0  0  0  0
 19 24  1  0  0  0  0
 23 25  1  0  0  0  0
 21 26  1  0  0  0  0
M  END
> <index>
13

> <Title>

> <chembl_id>
CHEMBL4743082

$$$$

  -OEChem-02052606112D

 19 19  0     1  0  0  0  0  0999 V2000
    7.4186  -23.8967    0.0000 C   0  0  1  0  0  0  0  0  0  0  0  0
    8.1263  -24.3052    0.0000 C   0  0  0  0  0  0  0  0  0  0  0  0
    8.8340  -23.8967    0.0000 O   0  0  0  0  0  0  0  0  0  0  0  0
    8.1263  -25.1224    0.0000 O   0  0  0  0  0  0  0  0  0  0  0  0
    6.7109  -24.3052    0.0000 N   0  0  0  0  0  0  0  0  0  0  0  0
    6.0032  -23.8967    0.0000 C   0  0  0  0  0  0  0  0  0  0  0  0
    5.2955  -24.3052    0.0000 C   0  0  0  0  0  0  0  0  0  0  0  0
    6.0032  -23.0795    0.0000 O   0  0  0  0  0  0  0  0  0  0  0  0
    4.5473  -23.9771    0.0000 C   0  0  0  0  0  0  0  0  0  0  0  0
    4.0005  -24.5844    0.0000 C   0  0  0  0  0  0  0  0  0  0  0  0
    4.4092  -25.2922    0.0000 C   0  0  0  0  0  0  0  0  0  0  0  0
    5.2084  -25.1222    0.0000 N   0  0  0  0  0  0  0  0  0  0  0  0
    3.1878  -24.4990    0.0000 Cl  0  0  0  0  0  0  0  0  0  0  0  0
    7.4186  -23.0795    0.0000 C   0  0  0  0  0  0  0  0  0  0  0  0
    8.1263  -22.6709    0.0000 C   0  0  0  0  0  0  0  0  0  0  0  0
    8.1263  -21.8537    0.0000 C   0  0  0  0  0  0  0  0  0  0  0  0
    8.8340  -21.4451    0.0000 C   0  0  0  0  0  0  0  0  0  0  0  0
    7.4186  -21.4451    0.0000 C   0  0  0  0  0  0  0  0  0  0  0  0
    8.1183  -21.0324    0.0000 C   0  0  0  0  0  0  0  0  0  0  0  0
  1  2  1  0  0  0  0
  2  3  1  0  0  0  0
  2  4  2  0  0  0  0
  1  5  1  0  0  0  0
  5  6  1  0  0  0  0
  6  7  1  0  0  0  0
  6  8  2  0  0  0  0
  7  9  2  0  0  0  0
  9 10  1  0  0  0  0
 10 11  2  0  0  0  0
 11 12  1  0  0  0  0
  7 12  1  0  0  0  0
 10 13  1  0  0  0  0
  1 14  1  1  0  0  0
 14 15  1  0  0  0  0
 15 16  1  0  0  0  0
 16 17  1  0  0  0  0
 16 18  1  0  0  0  0
 16 19  1  0  0  0  0
M  END
> <index>
14

> <Title>

> <chembl_id>
CHEMBL4751566

$$$$

  -OEChem-02052606112D

 21 22  0     0  0  0  0  0  0999 V2000
    5.2486  -14.5157    0.0000 C   0  0  0  0  0  0  0  0  0  0  0  0
    5.0340  -15.3040    0.0000 N   0  0  0  0  0  0  0  0  0  0  0  0
    5.7174  -15.7517    0.0000 N   0  0  0  0  0  0  0  0  0  0  0  0
    6.3545  -15.2401    0.0000 C   0  0  0  0  0  0  0  0  0  0  0  0
    6.0646  -14.4763    0.0000 C   0  0  0  0  0  0  0  0  0  0  0  0
    7.1430  -15.4547    0.0000 C   0  0  0  0  0  0  0  0  0  0  0  0
    7.3513  -16.2449    0.0000 O   0  0  0  0  0  0  0  0  0  0  0  0
    7.7231  -14.8792    0.0000 O   0  0  0  0  0  0  0  0  0  0  0  0
    5.7569  -16.5680    0.0000 C   0  0  0  0  0  0  0  0  0  0  0  0
    5.0697  -17.0103    0.0000 C   0  0  0  0  0  0  0  0  0  0  0  0
    4.3458  -16.6330    0.0000 C   0  0  0  0  0  0  0  0  0  0  0  0
    3.6591  -17.0746    0.0000 C   0  0  0  0  0  0  0  0  0  0  0  0
    3.6982  -17.8917    0.0000 C   0  0  0  0  0  0  0  0  0  0  0  0
    4.4297  -18.2652    0.0000 C   0  0  0  0  0  0  0  0  0  0  0  0
    5.1134  -17.8214    0.0000 C   0  0  0  0  0  0  0  0  0  0  0  0
    4.8330  -13.8056    0.0000 C   0  0  0  0  0  0  0  0  0  0  0  0
    5.2374  -13.0954    0.0000 C   0  0  0  0  0  0  0  0  0  0  0  0
    6.0545  -13.0906    0.0000 C   0  0  0  0  0  0  0  0  0  0  0  0
    6.4589  -12.3804    0.0000 C   0  0  0  0  0  0  0  0  0  0  0  0
    6.4673  -13.7958    0.0000 C   0  0  0  0  0  0  0  0  0  0  0  0
    6.8677  -13.0874    0.0000 C   0  0  0  0  0  0  0  0  0  0  0  0
  1  2  2  0  0  0  0
  2  3  1  0  0  0  0
  3  4  1  0  0  0  0
  4  5  2  0  0  0  0
  1  5  1  0  0  0  0
  4  6  1  0  0  0  0
  6  7  2  0  0  0  0
  6  8  1  0  0  0  0
  3  9  1  0  0  0  0
  9 10  1  0  0  0  0
 10 11  2  0  0  0  0
 11 12  1  0  0  0  0
 12 13  2  0  0  0  0
 13 14  1  0  0  0  0
 14 15  2  0  0  0  0
 10 15  1  0  0  0  0
  1 16  1  0  0  0  0
 16 17  1  0  0  0  0
 17 18  1  0  0  0  0
 18 19  1  0  0  0  0
 18 20  1  0  0  0  0
 18 21  1  0  0  0  0
M  END
> <index>
15

> <Title>

> <chembl_id>
CHEMBL4746637

$$$$

  -OEChem-02052606112D

 25 26  0     1  0  0  0  0  0999 V2000
   32.2397  -23.4055    0.0000 C   0  0  1  0  0  0  0  0  0  0  0  0
   32.9516  -23.8141    0.0000 C   0  0  0  0  0  0  0  0  0  0  0  0
   33.6593  -23.4055    0.0000 O   0  0  0  0  0  0  0  0  0  0  0  0
   32.9516  -24.6354    0.0000 O   0  0  0  0  0  0  0  0  0  0  0  0
   31.5279  -23.8141    0.0000 N   0  0  0  0  0  0  0  0  0  0  0  0
   30.8161  -23.4055    0.0000 C   0  0  0  0  0  0  0  0  0  0  0  0
   30.1042  -23.8141    0.0000 C   0  0  0  0  0  0  0  0  0  0  0  0
   30.8161  -22.5842    0.0000 O   0  0  0  0  0  0  0  0  0  0  0  0
   32.2397  -22.5842    0.0000 C   0  0  0  0  0  0  0  0  0  0  0  0
   32.9516  -22.1715    0.0000 C   0  0  0  0  0  0  0  0  0  0  0  0
   29.3930  -23.4024    0.0000 C   0  0  0  0  0  0  0  0  0  0  0  0
   28.6816  -23.8103    0.0000 N   0  0  0  0  0  0  0  0  0  0  0  0
   28.6812  -24.6325    0.0000 C   0  0  0  0  0  0  0  0  0  0  0  0
   29.3980  -25.0451    0.0000 C   0  0  0  0  0  0  0  0  0  0  0  0
   30.1064  -24.6307    0.0000 C   0  0  0  0  0  0  0  0  0  0  0  0
   27.9699  -25.0462    0.0000 O   0  0  0  0  0  0  0  0  0  0  0  0
   27.2616  -24.6344    0.0000 C   0  0  0  0  0  0  0  0  0  0  0  0
   27.2646  -23.8151    0.0000 C   0  0  0  0  0  0  0  0  0  0  0  0
   26.5530  -23.4075    0.0000 C   0  0  0  0  0  0  0  0  0  0  0  0
   25.8407  -23.8171    0.0000 C   0  0  0  0  0  0  0  0  0  0  0  0
   25.8445  -24.6426    0.0000 C   0  0  0  0  0  0  0  0  0  0  0  0
   26.5566  -25.0506    0.0000 C   0  0  0  0  0  0  0  0  0  0  0  0
   33.6600  -22.5788    0.0000 C   0  0  0  0  0  0  0  0  0  0  0  0
   32.9501  -21.3543    0.0000 C   0  0  0  0  0  0  0  0  0  0  0  0
   33.6534  -21.7546    0.0000 C   0  0  0  0  0  0  0  0  0  0  0  0
  1  2  1  0  0  0  0
  2  3  1  0  0  0  0
  2  4  2  0  0  0  0
  1  5  1  0  0  0  0
  5  6  1  0  0  0  0
  6  7  1  0  0  0  0
  6  8  2  0  0  0  0
  1  9  1  1  0  0  0
  9 10  1  0  0  0  0
  7 11  2  0  0  0  0
 11 12  1  0  0  0  0
 12 13  2  0  0  0  0
 13 14  1  0  0  0  0
 14 15  2  0  0  0  0
  7 15  1  0  0  0  0
 13 16  1  0  0  0  0
 16 17  1  0  0  0  0
 17 18  2  0  0  0  0
 18 19  1  0  0  0  0
 19 20  2  0  0  0  0
 20 21  1  0  0  0  0
 21 22  2  0  0  0  0
 17 22  1  0  0  0  0
 10 23  1  0  0  0  0
 10 24  1  0  0  0  0
 10 25  1  0  0  0  0
M  END
> <index>
16

> <Title>

> <chembl_id>
CHEMBL4751985

$$$$

  -OEChem-02052606112D

 26 28  0     0  0  0  0  0  0999 V2000
    1.3508    1.1683    0.0000 C   0  0  0  0  0  0  0  0  0  0  0  0
    1.1361    0.3800    0.0000 N   0  0  0  0  0  0  0  0  0  0  0  0
    1.8195   -0.0678    0.0000 N   0  0  0  0  0  0  0  0  0  0  0  0
    2.4566    0.4438    0.0000 C   0  0  0  0  0  0  0  0  0  0  0  0
    2.1668    1.2077    0.0000 C   0  0  0  0  0  0  0  0  0  0  0  0
    3.2451    0.2292    0.0000 C   0  0  0  0  0  0  0  0  0  0  0  0
    3.4535   -0.5610    0.0000 O   0  0  0  0  0  0  0  0  0  0  0  0
    3.8252    0.8047    0.0000 O   0  0  0  0  0  0  0  0  0  0  0  0
    1.8590   -0.8840    0.0000 C   0  0  0  0  0  0  0  0  0  0  0  0
    1.1718   -1.3263    0.0000 C   0  0  0  0  0  0  0  0  0  0  0  0
    0.4479   -0.9490    0.0000 C   0  0  0  0  0  0  0  0  0  0  0  0
   -0.2388   -1.3906    0.0000 N   0  0  0  0  0  0  0  0  0  0  0  0
   -0.1997   -2.2077    0.0000 C   0  0  0  0  0  0  0  0  0  0  0  0
    0.5319   -2.5813    0.0000 C   0  0  0  0  0  0  0  0  0  0  0  0
    1.2156   -2.1375    0.0000 C   0  0  0  0  0  0  0  0  0  0  0  0
    0.9351    1.8784    0.0000 C   0  0  0  0  0  0  0  0  0  0  0  0
    1.3395    2.5885    0.0000 C   0  0  0  0  0  0  0  0  0  0  0  0
    0.1179    1.8735    0.0000 C   0  0  0  0  0  0  0  0  0  0  0  0
    0.5224    2.5882    0.0000 C   0  0  0  0  0  0  0  0  0  0  0  0
   -0.8863   -2.6509    0.0000 O   0  0  0  0  0  0  0  0  0  0  0  0
   -1.6134   -2.2780    0.0000 C   0  0  0  0  0  0  0  0  0  0  0  0
   -1.6491   -1.4607    0.0000 C   0  0  0  0  0  0  0  0  0  0  0  0
   -2.3753   -1.0878    0.0000 C   0  0  0  0  0  0  0  0  0  0  0  0
   -3.0629   -1.5311    0.0000 C   0  0  0  0  0  0  0  0  0  0  0  0
   -3.0195   -2.3513    0.0000 C   0  0  0  0  0  0  0  0  0  0  0  0
   -2.2928   -2.7206    0.0000 C   0  0  0  0  0  0  0  0  0  0  0  0
  1  2  2  0  0  0  0
  2  3  1  0  0  0  0
  3  4  1  0  0  0  0
  4  5  2  0  0  0  0
  1  5  1  0  0  0  0
  4  6  1  0  0  0  0
  6  7  2  0  0  0  0
  6  8  1  0  0  0  0
  3  9  1  0  0  0  0
  9 10  1  0  0  0  0
 10 11  2  0  0  0  0
 11 12  1  0  0  0  0
 12 13  2  0  0  0  0
 13 14  1  0  0  0  0
 14 15  2  0  0  0  0
 10 15  1  0  0  0  0
  1 16  1  0  0  0  0
 16 17  1  0  0  0  0
 16 18  1  0  0  0  0
 16 19  1  0  0  0  0
 13 20  1  0  0  0  0
 20 21  1  0  0  0  0
 21 22  2  0  0  0  0
 22 23  1  0  0  0  0
 23 24  2  0  0  0  0
 24 25  1  0  0  0  0
 25 26  2  0  0  0  0
 21 26  1  0  0  0  0
M  END
> <index>
17

> <Title>

> <chembl_id>
CHEMBL4777461

$$$$

  -OEChem-02052606112D

 19 20  0     0  0  0  0  0  0999 V2000
   24.0481  -11.7917    0.0000 C   0  0  0  0  0  0  0  0  0  0  0  0
   23.8335  -12.5800    0.0000 N   0  0  0  0  0  0  0  0  0  0  0  0
   24.5169  -13.0278    0.0000 N   0  0  0  0  0  0  0  0  0  0  0  0
   25.1540  -12.5161    0.0000 C   0  0  0  0  0  0  0  0  0  0  0  0
   24.8642  -11.7523    0.0000 C   0  0  0  0  0  0  0  0  0  0  0  0
   25.9425  -12.7308    0.0000 C   0  0  0  0  0  0  0  0  0  0  0  0
   26.1508  -13.5209    0.0000 O   0  0  0  0  0  0  0  0  0  0  0  0
   26.5226  -12.1552    0.0000 O   0  0  0  0  0  0  0  0  0  0  0  0
   24.5564  -13.8440    0.0000 C   0  0  0  0  0  0  0  0  0  0  0  0
   23.8692  -14.2863    0.0000 C   0  0  0  0  0  0  0  0  0  0  0  0
   23.1453  -13.9090    0.0000 C   0  0  0  0  0  0  0  0  0  0  0  0
   22.4586  -14.3506    0.0000 C   0  0  0  0  0  0  0  0  0  0  0  0
   22.4977  -15.1677    0.0000 C   0  0  0  0  0  0  0  0  0  0  0  0
   23.2293  -15.5413    0.0000 C   0  0  0  0  0  0  0  0  0  0  0  0
   23.9129  -15.0975    0.0000 C   0  0  0  0  0  0  0  0  0  0  0  0
   23.6325  -11.0816    0.0000 C   0  0  0  0  0  0  0  0  0  0  0  0
   24.0369  -10.3715    0.0000 C   0  0  0  0  0  0  0  0  0  0  0  0
   22.8153  -11.0865    0.0000 C   0  0  0  0  0  0  0  0  0  0  0  0
   23.2198  -10.3717    0.0000 C   0  0  0  0  0  0  0  0  0  0  0  0
  1  2  2  0  0  0  0
  2  3  1  0  0  0  0
  3  4  1  0  0  0  0
  4  5  2  0  0  0  0
  1  5  1  0  0  0  0
  4  6  1  0  0  0  0
  6  7  2  0  0  0  0
  6  8  1  0  0  0  0
  3  9  1  0  0  0  0
  9 10  1  0  0  0  0
 10 11  2  0  0  0  0
 11 12  1  0  0  0  0
 12 13  2  0  0  0  0
 13 14  1  0  0  0  0
 14 15  2  0  0  0  0
 10 15  1  0  0  0  0
  1 16  1  0  0  0  0
 16 17  1  0  0  0  0
 16 18  1  0  0  0  0
 16 19  1  0  0  0  0
M  END
> <index>
18

> <Title>

> <chembl_id>
CHEMBL4748685

$$$$

  -OEChem-02052606112D

 19 20  0     0  0  0  0  0  0999 V2000
   29.0503   -3.4052    0.0000 C   0  0  0  0  0  0  0  0  0  0  0  0
   28.8357   -4.1935    0.0000 N   0  0  0  0  0  0  0  0  0  0  0  0
   29.5191   -4.6412    0.0000 N   0  0  0  0  0  0  0  0  0  0  0  0
   30.1562   -4.1296    0.0000 C   0  0  0  0  0  0  0  0  0  0  0  0
   29.8664   -3.3658    0.0000 C   0  0  0  0  0  0  0  0  0  0  0  0
   30.9447   -4.3442    0.0000 C   0  0  0  0  0  0  0  0  0  0  0  0
   31.1530   -5.1344    0.0000 O   0  0  0  0  0  0  0  0  0  0  0  0
   31.5248   -3.7687    0.0000 O   0  0  0  0  0  0  0  0  0  0  0  0
   29.5586   -5.4575    0.0000 C   0  0  0  0  0  0  0  0  0  0  0  0
   28.6347   -2.6951    0.0000 C   0  0  0  0  0  0  0  0  0  0  0  0
   29.0391   -1.9849    0.0000 C   0  0  0  0  0  0  0  0  0  0  0  0
   27.8175   -2.6999    0.0000 C   0  0  0  0  0  0  0  0  0  0  0  0
   28.8714   -5.8998    0.0000 C   0  0  0  0  0  0  0  0  0  0  0  0
   28.9109   -6.7160    0.0000 C   0  0  0  0  0  0  0  0  0  0  0  0
   28.2224   -7.1563    0.0000 C   0  0  0  0  0  0  0  0  0  0  0  0
   28.2615   -7.9718    0.0000 C   0  0  0  0  0  0  0  0  0  0  0  0
   28.9886   -8.3465    0.0000 C   0  0  0  0  0  0  0  0  0  0  0  0
   29.6779   -7.8997    0.0000 C   0  0  0  0  0  0  0  0  0  0  0  0
   29.6354   -7.0858    0.0000 C   0  0  0  0  0  0  0  0  0  0  0  0
  1  2  2  0  0  0  0
  2  3  1  0  0  0  0
  3  4  1  0  0  0  0
  4  5  2  0  0  0  0
  1  5  1  0  0  0  0
  4  6  1  0  0  0  0
  6  7  2  0  0  0  0
  6  8  1  0  0  0  0
  3  9  1  0  0  0  0
  1 10  1  0  0  0  0
 10 11  1  0  0  0  0
 10 12  1  0  0  0  0
  9 13  1  0  0  0  0
 13 14  1  0  0  0  0
 14 15  2  0  0  0  0
 15 16  1  0  0  0  0
 16 17  2  0  0  0  0
 17 18  1  0  0  0  0
 18 19  2  0  0  0  0
 14 19  1  0  0  0  0
M  END
> <index>
19

> <Title>

> <chembl_id>
CHEMBL4752096

$$$$

  -OEChem-02052606112D

 19 19  0     1  0  0  0  0  0999 V2000
   13.8743  -20.4917    0.0000 C   0  0  0  0  0  0  0  0  0  0  0  0
   13.8732  -21.3112    0.0000 C   0  0  0  0  0  0  0  0  0  0  0  0
   14.5812  -21.7202    0.0000 C   0  0  0  0  0  0  0  0  0  0  0  0
   15.2909  -21.3107    0.0000 C   0  0  0  0  0  0  0  0  0  0  0  0
   15.2881  -20.4881    0.0000 C   0  0  0  0  0  0  0  0  0  0  0  0
   14.5794  -20.0828    0.0000 C   0  0  0  0  0  0  0  0  0  0  0  0
   15.9942  -20.0768    0.0000 C   0  0  0  0  0  0  0  0  0  0  0  0
   16.7035  -20.4827    0.0000 N   0  0  0  0  0  0  0  0  0  0  0  0
   15.9911  -19.2596    0.0000 O   0  0  0  0  0  0  0  0  0  0  0  0
   17.4096  -20.0715    0.0000 C   0  0  2  0  0  0  0  0  0  0  0  0
   18.1189  -20.4774    0.0000 C   0  0  0  0  0  0  0  0  0  0  0  0
   18.8250  -20.0661    0.0000 O   0  0  0  0  0  0  0  0  0  0  0  0
   18.1219  -21.2946    0.0000 O   0  0  0  0  0  0  0  0  0  0  0  0
   17.4065  -19.2543    0.0000 C   0  0  0  0  0  0  0  0  0  0  0  0
   18.1127  -18.8430    0.0000 C   0  0  0  0  0  0  0  0  0  0  0  0
   18.1096  -18.0258    0.0000 C   0  0  0  0  0  0  0  0  0  0  0  0
   18.8220  -19.2489    0.0000 C   0  0  0  0  0  0  0  0  0  0  0  0
   14.5810  -22.5373    0.0000 Cl  0  0  0  0  0  0  0  0  0  0  0  0
   13.1665  -20.0832    0.0000 Cl  0  0  0  0  0  0  0  0  0  0  0  0
  1  2  2  0  0  0  0
  2  3  1  0  0  0  0
  3  4  2  0  0  0  0
  4  5  1  0  0  0  0
  5  6  2  0  0  0  0
  1  6  1  0  0  0  0
  5  7  1  0  0  0  0
  7  8  1  0  0  0  0
  7  9  2  0  0  0  0
  8 10  1  0  0  0  0
 10 11  1  0  0  0  0
 11 12  1  0  0  0  0
 11 13  2  0  0  0  0
 10 14  1  1  0  0  0
 14 15  1  0  0  0  0
 15 16  2  0  0  0  0
 15 17  1  0  0  0  0
  3 18  1  0  0  0  0
  1 19  1  0  0  0  0
M  END
> <index>
20

> <Title>

> <chembl_id>
CHEMBL4741342

$$$$

  -OEChem-02052606112D

 18 19  0     0  0  0  0  0  0999 V2000
   31.1016  -22.5019    0.0000 C   0  0  0  0  0  0  0  0  0  0  0  0
   30.8870  -23.2902    0.0000 N   0  0  0  0  0  0  0  0  0  0  0  0
   31.5704  -23.7379    0.0000 N   0  0  0  0  0  0  0  0  0  0  0  0
   32.2074  -23.2263    0.0000 C   0  0  0  0  0  0  0  0  0  0  0  0
   31.9176  -22.4624    0.0000 C   0  0  0  0  0  0  0  0  0  0  0  0
   32.9959  -23.4409    0.0000 C   0  0  0  0  0  0  0  0  0  0  0  0
   33.2043  -24.2311    0.0000 O   0  0  0  0  0  0  0  0  0  0  0  0
   33.5760  -22.8654    0.0000 O   0  0  0  0  0  0  0  0  0  0  0  0
   31.6098  -24.5541    0.0000 C   0  0  0  0  0  0  0  0  0  0  0  0
   30.6859  -21.7918    0.0000 C   0  0  0  0  0  0  0  0  0  0  0  0
   31.0903  -21.0816    0.0000 C   0  0  0  0  0  0  0  0  0  0  0  0
   29.8688  -21.7966    0.0000 C   0  0  0  0  0  0  0  0  0  0  0  0
   30.2732  -21.0819    0.0000 C   0  0  0  0  0  0  0  0  0  0  0  0
   30.9217  -24.9945    0.0000 C   0  0  0  0  0  0  0  0  0  0  0  0
   30.9608  -25.8100    0.0000 C   0  0  0  0  0  0  0  0  0  0  0  0
   31.6879  -26.1848    0.0000 C   0  0  0  0  0  0  0  0  0  0  0  0
   32.3772  -25.7380    0.0000 C   0  0  0  0  0  0  0  0  0  0  0  0
   32.3347  -24.9240    0.0000 C   0  0  0  0  0  0  0  0  0  0  0  0
  1  2  2  0  0  0  0
  2  3  1  0  0  0  0
  3  4  1  0  0  0  0
  4  5  2  0  0  0  0
  1  5  1  0  0  0  0
  4  6  1  0  0  0  0
  6  7  2  0  0  0  0
  6  8  1  0  0  0  0
  3  9  1  0  0  0  0
  1 10  1  0  0  0  0
 10 11  1  0  0  0  0
 10 12  1  0  0  0  0
 10 13  1  0  0  0  0
  9 14  2  0  0  0  0
 14 15  1  0  0  0  0
 15 16  2  0  0  0  0
 16 17  1  0  0  0  0
 17 18  2  0  0  0  0
  9 18  1  0  0  0  0
M  END
> <index>
21

> <Title>

> <chembl_id>
CHEMBL4743518

$$$$

  -OEChem-02052606112D

 19 19  0     1  0  0  0  0  0999 V2000
    4.1292   -4.9417    0.0000 C   0  0  0  0  0  0  0  0  0  0  0  0
    4.6542   -5.2417    0.0000 N   0  0  0  0  0  0  0  0  0  0  0  0
    5.1750   -4.9417    0.0000 C   0  0  2  0  0  0  0  0  0  0  0  0
    5.6917   -5.2417    0.0000 C   0  0  0  0  0  0  0  0  0  0  0  0
    3.6167   -5.2417    0.0000 C   0  0  0  0  0  0  0  0  0  0  0  0
    4.1292   -4.3417    0.0000 O   0  0  0  0  0  0  0  0  0  0  0  0
    3.0917   -4.9375    0.0000 C   0  0  0  0  0  0  0  0  0  0  0  0
    5.6917   -5.8417    0.0000 O   0  0  0  0  0  0  0  0  0  0  0  0
    5.1750   -4.3417    0.0000 C   0  0  0  0  0  0  0  0  0  0  0  0
    6.2125   -4.9417    0.0000 O   0  0  0  0  0  0  0  0  0  0  0  0
    2.5750   -5.2375    0.0000 C   0  0  0  0  0  0  0  0  0  0  0  0
    2.0542   -4.9375    0.0000 O   0  0  0  0  0  0  0  0  0  0  0  0
    3.6167   -5.8375    0.0000 C   0  0  0  0  0  0  0  0  0  0  0  0
    3.1000   -6.1375    0.0000 C   0  0  0  0  0  0  0  0  0  0  0  0
    5.6917   -4.0417    0.0000 C   0  0  0  0  0  0  0  0  0  0  0  0
    2.5750   -5.8375    0.0000 C   0  0  0  0  0  0  0  0  0  0  0  0
    1.5375   -5.2375    0.0000 C   0  0  0  0  0  0  0  0  0  0  0  0
    6.2125   -4.3417    0.0000 C   0  0  0  0  0  0  0  0  0  0  0  0
    5.6917   -3.4417    0.0000 C   0  0  0  0  0  0  0  0  0  0  0  0
  1  2  1  0  0  0  0
  2  3  1  0  0  0  0
  3  4  1  0  0  0  0
  1  5  1  0  0  0  0
  1  6  2  0  0  0  0
  5  7  2  0  0  0  0
  4  8  2  0  0  0  0
  3  9  1  1  0  0  0
  4 10  1  0  0  0  0
  7 11  1  0  0  0  0
 11 12  1  0  0  0  0
  5 13  1  0  0  0  0
 13 14  2  0  0  0  0
  9 15  1  0  0  0  0
 14 16  1  0  0  0  0
 12 17  1  0  0  0  0
 15 18  1  0  0  0  0
 15 19  1  0  0  0  0
 11 16  2  0  0  0  0
M  END
> <index>
22

> <Title>

> <chembl_id>
CHEMBL135435

$$$$

  -OEChem-02052606112D

 21 21  0     1  0  0  0  0  0999 V2000
   30.0902   -5.2952    0.0000 C   0  0  0  0  0  0  0  0  0  0  0  0
   30.0891   -6.1189    0.0000 C   0  0  0  0  0  0  0  0  0  0  0  0
   30.8054   -6.5278    0.0000 C   0  0  0  0  0  0  0  0  0  0  0  0
   31.5150   -6.1184    0.0000 C   0  0  0  0  0  0  0  0  0  0  0  0
   31.5122   -5.2916    0.0000 C   0  0  0  0  0  0  0  0  0  0  0  0
   30.8036   -4.8822    0.0000 C   0  0  0  0  0  0  0  0  0  0  0  0
   32.2266   -4.8762    0.0000 C   0  0  0  0  0  0  0  0  0  0  0  0
   32.9359   -5.2863    0.0000 N   0  0  0  0  0  0  0  0  0  0  0  0
   32.2235   -4.0549    0.0000 O   0  0  0  0  0  0  0  0  0  0  0  0
   33.6461   -4.8709    0.0000 C   0  0  2  0  0  0  0  0  0  0  0  0
   34.3595   -5.2809    0.0000 C   0  0  0  0  0  0  0  0  0  0  0  0
   35.0698   -4.8655    0.0000 O   0  0  0  0  0  0  0  0  0  0  0  0
   34.3626   -6.1022    0.0000 O   0  0  0  0  0  0  0  0  0  0  0  0
   33.6431   -4.0496    0.0000 C   0  0  0  0  0  0  0  0  0  0  0  0
   34.3534   -3.6342    0.0000 C   0  0  0  0  0  0  0  0  0  0  0  0
   30.8052   -7.3533    0.0000 Cl  0  0  0  0  0  0  0  0  0  0  0  0
   29.3824   -4.8826    0.0000 Cl  0  0  0  0  0  0  0  0  0  0  0  0
   34.3500   -2.8335    0.0000 C   0  0  0  0  0  0  0  0  0  0  0  0
   35.0436   -2.4302    0.0000 C   0  0  0  0  0  0  0  0  0  0  0  0
   33.6571   -2.4361    0.0000 C   0  0  0  0  0  0  0  0  0  0  0  0
   34.3427   -2.0306    0.0000 C   0  0  0  0  0  0  0  0  0  0  0  0
  1  2  2  0  0  0  0
  2  3  1  0  0  0  0
  3  4  2  0  0  0  0
  4  5  1  0  0  0  0
  5  6  2  0  0  0  0
  1  6  1  0  0  0  0
  5  7  1  0  0  0  0
  7  8  1  0  0  0  0
  7  9  2  0  0  0  0
  8 10  1  0  0  0  0
 10 11  1  0  0  0  0
 11 12  1  0  0  0  0
 11 13  2  0  0  0  0
 10 14  1  1  0  0  0
 14 15  1  0  0  0  0
  3 16  1  0  0  0  0
  1 17  1  0  0  0  0
 15 18  1  0  0  0  0
 18 19  1  0  0  0  0
 18 20  1  0  0  0  0
 18 21  1  0  0  0  0
M  END
> <index>
23

> <Title>

> <chembl_id>
CHEMBL4741088

$$$$

  -OEChem-02052606112D

 24 26  0     0  0  0  0  0  0999 V2000
   13.3091   -3.4010    0.0000 C   0  0  0  0  0  0  0  0  0  0  0  0
   13.0945   -4.1893    0.0000 N   0  0  0  0  0  0  0  0  0  0  0  0
   13.7779   -4.6371    0.0000 N   0  0  0  0  0  0  0  0  0  0  0  0
   14.4149   -4.1255    0.0000 C   0  0  0  0  0  0  0  0  0  0  0  0
   14.1251   -3.3616    0.0000 C   0  0  0  0  0  0  0  0  0  0  0  0
   15.2034   -4.3401    0.0000 C   0  0  0  0  0  0  0  0  0  0  0  0
   15.4118   -5.1303    0.0000 O   0  0  0  0  0  0  0  0  0  0  0  0
   15.7836   -3.7646    0.0000 O   0  0  0  0  0  0  0  0  0  0  0  0
   13.8173   -5.4533    0.0000 C   0  0  0  0  0  0  0  0  0  0  0  0
   12.8935   -2.6910    0.0000 C   0  0  0  0  0  0  0  0  0  0  0  0
   13.2978   -1.9808    0.0000 C   0  0  0  0  0  0  0  0  0  0  0  0
   12.0763   -2.6958    0.0000 C   0  0  0  0  0  0  0  0  0  0  0  0
   12.4807   -1.9811    0.0000 C   0  0  0  0  0  0  0  0  0  0  0  0
   13.1302   -5.8956    0.0000 C   0  0  0  0  0  0  0  0  0  0  0  0
   12.3709   -5.5981    0.0000 N   0  0  0  0  0  0  0  0  0  0  0  0
   11.8540   -6.2310    0.0000 N   0  0  0  0  0  0  0  0  0  0  0  0
   12.2964   -6.9182    0.0000 C   0  0  0  0  0  0  0  0  0  0  0  0
   13.0865   -6.7098    0.0000 O   0  0  0  0  0  0  0  0  0  0  0  0
   12.0005   -7.6800    0.0000 C   0  0  0  0  0  0  0  0  0  0  0  0
   11.1943   -7.7990    0.0000 C   0  0  0  0  0  0  0  0  0  0  0  0
   10.8984   -8.5599    0.0000 C   0  0  0  0  0  0  0  0  0  0  0  0
   11.4103   -9.1979    0.0000 C   0  0  0  0  0  0  0  0  0  0  0  0
   12.2217   -9.0701    0.0000 C   0  0  0  0  0  0  0  0  0  0  0  0
   12.5139   -8.3091    0.0000 C   0  0  0  0  0  0  0  0  0  0  0  0
  1  2  2  0  0  0  0
  2  3  1  0  0  0  0
  3  4  1  0  0  0  0
  4  5  2  0  0  0  0
  1  5  1  0  0  0  0
  4  6  1  0  0  0  0
  6  7  2  0  0  0  0
  6  8  1  0  0  0  0
  3  9  1  0  0  0  0
  1 10  1  0  0  0  0
 10 11  1  0  0  0  0
 10 12  1  0  0  0  0
 10 13  1  0  0  0  0
  9 14  1  0  0  0  0
 14 15  2  0  0  0  0
 15 16  1  0  0  0  0
 16 17  2  0  0  0  0
 17 18  1  0  0  0  0
 14 18  1  0  0  0  0
 17 19  1  0  0  0  0
 19 20  2  0  0  0  0
 20 21  1  0  0  0  0
 21 22  2  0  0  0  0
 22 23  1  0  0  0  0
 23 24  2  0  0  0  0
 19 24  1  0  0  0  0
M  END
> <index>
24

> <Title>

> <chembl_id>
CHEMBL4791749

$$$$

  -OEChem-02052606112D

 17 17  0     1  0  0  0  0  0999 V2000
   13.6537  -12.1965    0.0000 C   0  0  0  0  0  0  0  0  0  0  0  0
   14.3598  -11.7852    0.0000 C   0  0  0  0  0  0  0  0  0  0  0  0
   15.0732  -12.1911    0.0000 N   0  0  0  0  0  0  0  0  0  0  0  0
   14.3568  -10.9639    0.0000 O   0  0  0  0  0  0  0  0  0  0  0  0
   15.7835  -11.7799    0.0000 C   0  0  2  0  0  0  0  0  0  0  0  0
   16.4969  -12.1858    0.0000 C   0  0  0  0  0  0  0  0  0  0  0  0
   17.2072  -11.7745    0.0000 O   0  0  0  0  0  0  0  0  0  0  0  0
   16.4999  -13.0071    0.0000 O   0  0  0  0  0  0  0  0  0  0  0  0
   15.7804  -10.9585    0.0000 C   0  0  0  0  0  0  0  0  0  0  0  0
   16.4907  -10.5432    0.0000 C   0  0  0  0  0  0  0  0  0  0  0  0
   16.4876   -9.7218    0.0000 C   0  0  0  0  0  0  0  0  0  0  0  0
   17.2041  -10.9532    0.0000 C   0  0  0  0  0  0  0  0  0  0  0  0
   12.9024  -11.8678    0.0000 C   0  0  0  0  0  0  0  0  0  0  0  0
   12.3537  -12.4812    0.0000 N   0  0  0  0  0  0  0  0  0  0  0  0
   12.7650  -13.1916    0.0000 N   0  0  0  0  0  0  0  0  0  0  0  0
   13.5678  -13.0144    0.0000 C   0  0  0  0  0  0  0  0  0  0  0  0
   12.4355  -13.9394    0.0000 C   0  0  0  0  0  0  0  0  0  0  0  0
  1  2  1  0  0  0  0
  2  3  1  0  0  0  0
  2  4  2  0  0  0  0
  3  5  1  0  0  0  0
  5  6  1  0  0  0  0
  6  7  1  0  0  0  0
  6  8  2  0  0  0  0
  5  9  1  1  0  0  0
  9 10  1  0  0  0  0
 10 11  1  0  0  0  0
 10 12  1  0  0  0  0
  1 13  1  0  0  0  0
 13 14  2  0  0  0  0
 14 15  1  0  0  0  0
 15 16  1  0  0  0  0
  1 16  2  0  0  0  0
 15 17  1  0  0  0  0
M  END
> <index>
25

> <Title>

> <chembl_id>
CHEMBL4764009

$$$$

  -OEChem-02052606112D

 19 20  0     1  0  0  0  0  0999 V2000
   23.3339  -20.5536    0.0000 C   0  0  0  0  0  0  0  0  0  0  0  0
   23.3328  -21.3731    0.0000 C   0  0  0  0  0  0  0  0  0  0  0  0
   24.0408  -21.7821    0.0000 C   0  0  0  0  0  0  0  0  0  0  0  0
   24.7505  -21.3726    0.0000 C   0  0  0  0  0  0  0  0  0  0  0  0
   24.7477  -20.5500    0.0000 C   0  0  0  0  0  0  0  0  0  0  0  0
   24.0390  -20.1447    0.0000 C   0  0  0  0  0  0  0  0  0  0  0  0
   25.4538  -20.1387    0.0000 C   0  0  0  0  0  0  0  0  0  0  0  0
   26.1631  -20.5446    0.0000 N   0  0  0  0  0  0  0  0  0  0  0  0
   25.4508  -19.3215    0.0000 O   0  0  0  0  0  0  0  0  0  0  0  0
   26.8692  -20.1334    0.0000 C   0  0  2  0  0  0  0  0  0  0  0  0
   27.5785  -20.5393    0.0000 C   0  0  0  0  0  0  0  0  0  0  0  0
   28.2846  -20.1280    0.0000 O   0  0  0  0  0  0  0  0  0  0  0  0
   27.5816  -21.3565    0.0000 O   0  0  0  0  0  0  0  0  0  0  0  0
   26.8662  -19.3162    0.0000 C   0  0  0  0  0  0  0  0  0  0  0  0
   27.5723  -18.9049    0.0000 C   0  0  0  0  0  0  0  0  0  0  0  0
   24.0406  -22.5993    0.0000 Cl  0  0  0  0  0  0  0  0  0  0  0  0
   22.6261  -20.1451    0.0000 Cl  0  0  0  0  0  0  0  0  0  0  0  0
   28.3868  -18.8994    0.0000 C   0  0  0  0  0  0  0  0  0  0  0  0
   27.9756  -18.1933    0.0000 C   0  0  0  0  0  0  0  0  0  0  0  0
  1  2  2  0  0  0  0
  2  3  1  0  0  0  0
  3  4  2  0  0  0  0
  4  5  1  0  0  0  0
  5  6  2  0  0  0  0
  1  6  1  0  0  0  0
  5  7  1  0  0  0  0
  7  8  1  0  0  0  0
  7  9  2  0  0  0  0
  8 10  1  0  0  0  0
 10 11  1  0  0  0  0
 11 12  1  0  0  0  0
 11 13  2  0  0  0  0
 10 14  1  1  0  0  0
 14 15  1  0  0  0  0
  3 16  1  0  0  0  0
  1 17  1  0  0  0  0
 15 18  1  0  0  0  0
 18 19  1  0  0  0  0
 15 19  1  0  0  0  0
M  END
> <index>
26

> <Title>

> <chembl_id>
CHEMBL4758704

$$$$

  -OEChem-02052606112D

 16 16  0     1  0  0  0  0  0999 V2000
    4.1292   -4.9417    0.0000 C   0  0  0  0  0  0  0  0  0  0  0  0
    4.6542   -5.2417    0.0000 N   0  0  0  0  0  0  0  0  0  0  0  0
    5.1750   -4.9417    0.0000 C   0  0  2  0  0  0  0  0  0  0  0  0
    5.6917   -5.2417    0.0000 C   0  0  0  0  0  0  0  0  0  0  0  0
    4.1292   -4.3417    0.0000 O   0  0  0  0  0  0  0  0  0  0  0  0
    5.6917   -5.8417    0.0000 O   0  0  0  0  0  0  0  0  0  0  0  0
    5.1750   -4.3417    0.0000 C   0  0  0  0  0  0  0  0  0  0  0  0
    3.6167   -5.2417    0.0000 C   0  0  0  0  0  0  0  0  0  0  0  0
    6.2125   -4.9417    0.0000 O   0  0  0  0  0  0  0  0  0  0  0  0
    5.6917   -4.0417    0.0000 C   0  0  0  0  0  0  0  0  0  0  0  0
    3.0667   -5.0000    0.0000 C   0  0  0  0  0  0  0  0  0  0  0  0
    3.5500   -5.8375    0.0000 C   0  0  0  0  0  0  0  0  0  0  0  0
    5.6917   -3.4417    0.0000 C   0  0  0  0  0  0  0  0  0  0  0  0
    6.2125   -4.3417    0.0000 C   0  0  0  0  0  0  0  0  0  0  0  0
    2.9625   -5.9625    0.0000 C   0  0  0  0  0  0  0  0  0  0  0  0
    2.6625   -5.4417    0.0000 C   0  0  0  0  0  0  0  0  0  0  0  0
  1  2  1  0  0  0  0
  2  3  1  0  0  0  0
  3  4  1  0  0  0  0
  1  5  2  0  0  0  0
  4  6  2  0  0  0  0
  3  7  1  1  0  0  0
  1  8  1  0  0  0  0
  4  9  1  0  0  0  0
  7 10  1  0  0  0  0
  8 11  1  0  0  0  0
  8 12  1  0  0  0  0
 10 13  1  0  0  0  0
 10 14  1  0  0  0  0
 12 15  1  0  0  0  0
 11 16  1  0  0  0  0
 15 16  1  0  0  0  0
M  END
> <index>
27

> <Title>

> <chembl_id>
CHEMBL135997

$$$$

  -OEChem-02052606112D

 21 22  0     0  0  0  0  0  0999 V2000
   32.1788  -11.9155    0.0000 C   0  0  0  0  0  0  0  0  0  0  0  0
   31.9642  -12.7038    0.0000 N   0  0  0  0  0  0  0  0  0  0  0  0
   32.6476  -13.1516    0.0000 N   0  0  0  0  0  0  0  0  0  0  0  0
   33.2846  -12.6399    0.0000 C   0  0  0  0  0  0  0  0  0  0  0  0
   32.9948  -11.8761    0.0000 C   0  0  0  0  0  0  0  0  0  0  0  0
   34.0731  -12.8546    0.0000 C   0  0  0  0  0  0  0  0  0  0  0  0
   34.2815  -13.6448    0.0000 O   0  0  0  0  0  0  0  0  0  0  0  0
   34.6532  -12.2790    0.0000 O   0  0  0  0  0  0  0  0  0  0  0  0
   32.6870  -13.9678    0.0000 C   0  0  0  0  0  0  0  0  0  0  0  0
   31.9999  -14.4101    0.0000 C   0  0  0  0  0  0  0  0  0  0  0  0
   31.2760  -14.0328    0.0000 C   0  0  0  0  0  0  0  0  0  0  0  0
   30.5893  -14.4744    0.0000 C   0  0  0  0  0  0  0  0  0  0  0  0
   30.6283  -15.2915    0.0000 C   0  0  0  0  0  0  0  0  0  0  0  0
   31.3599  -15.6651    0.0000 C   0  0  0  0  0  0  0  0  0  0  0  0
   32.0436  -15.2213    0.0000 C   0  0  0  0  0  0  0  0  0  0  0  0
   31.7632  -11.2054    0.0000 C   0  0  0  0  0  0  0  0  0  0  0  0
   32.1675  -10.4953    0.0000 C   0  0  0  0  0  0  0  0  0  0  0  0
   30.9460  -11.2103    0.0000 C   0  0  0  0  0  0  0  0  0  0  0  0
   31.3504  -10.4955    0.0000 C   0  0  0  0  0  0  0  0  0  0  0  0
   29.8628  -14.1001    0.0000 Cl  0  0  0  0  0  0  0  0  0  0  0  0
   31.4023  -16.4812    0.0000 Cl  0  0  0  0  0  0  0  0  0  0  0  0
  1  2  2  0  0  0  0
  2  3  1  0  0  0  0
  3  4  1  0  0  0  0
  4  5  2  0  0  0  0
  1  5  1  0  0  0  0
  4  6  1  0  0  0  0
  6  7  2  0  0  0  0
  6  8  1  0  0  0  0
  3  9  1  0  0  0  0
  9 10  1  0  0  0  0
 10 11  2  0  0  0  0
 11 12  1  0  0  0  0
 12 13  2  0  0  0  0
 13 14  1  0  0  0  0
 14 15  2  0  0  0  0
 10 15  1  0  0  0  0
  1 16  1  0  0  0  0
 16 17  1  0  0  0  0
 16 18  1  0  0  0  0
 16 19  1  0  0  0  0
 12 20  1  0  0  0  0
 14 21  1  0  0  0  0
M  END
> <index>
28

> <Title>

> <chembl_id>
CHEMBL4781044

$$$$

  -OEChem-02052606112D

 22 23  0     1  0  0  0  0  0999 V2000
   31.6544  -20.6774    0.0000 C   0  0  0  0  0  0  0  0  0  0  0  0
   31.6533  -21.4969    0.0000 C   0  0  0  0  0  0  0  0  0  0  0  0
   32.3613  -21.9059    0.0000 C   0  0  0  0  0  0  0  0  0  0  0  0
   33.0710  -21.4964    0.0000 C   0  0  0  0  0  0  0  0  0  0  0  0
   33.0682  -20.6738    0.0000 C   0  0  0  0  0  0  0  0  0  0  0  0
   32.3595  -20.2685    0.0000 C   0  0  0  0  0  0  0  0  0  0  0  0
   33.7743  -20.2625    0.0000 C   0  0  0  0  0  0  0  0  0  0  0  0
   34.4836  -20.6684    0.0000 N   0  0  0  0  0  0  0  0  0  0  0  0
   33.7712  -19.4453    0.0000 O   0  0  0  0  0  0  0  0  0  0  0  0
   35.1897  -20.2572    0.0000 C   0  0  2  0  0  0  0  0  0  0  0  0
   35.8990  -20.6631    0.0000 C   0  0  0  0  0  0  0  0  0  0  0  0
   36.6051  -20.2519    0.0000 O   0  0  0  0  0  0  0  0  0  0  0  0
   35.9021  -21.4803    0.0000 O   0  0  0  0  0  0  0  0  0  0  0  0
   35.1867  -19.4400    0.0000 C   0  0  0  0  0  0  0  0  0  0  0  0
   35.8928  -19.0287    0.0000 C   0  0  0  0  0  0  0  0  0  0  0  0
   32.3611  -22.7231    0.0000 Cl  0  0  0  0  0  0  0  0  0  0  0  0
   30.9466  -20.2690    0.0000 Cl  0  0  0  0  0  0  0  0  0  0  0  0
   36.5985  -19.4379    0.0000 C   0  0  0  0  0  0  0  0  0  0  0  0
   37.3025  -19.0302    0.0000 C   0  0  0  0  0  0  0  0  0  0  0  0
   37.3037  -18.2126    0.0000 C   0  0  0  0  0  0  0  0  0  0  0  0
   36.5946  -17.8045    0.0000 C   0  0  0  0  0  0  0  0  0  0  0  0
   35.8843  -18.2140    0.0000 C   0  0  0  0  0  0  0  0  0  0  0  0
  1  2  2  0  0  0  0
  2  3  1  0  0  0  0
  3  4  2  0  0  0  0
  4  5  1  0  0  0  0
  5  6  2  0  0  0  0
  1  6  1  0  0  0  0
  5  7  1  0  0  0  0
  7  8  1  0  0  0  0
  7  9  2  0  0  0  0
  8 10  1  0  0  0  0
 10 11  1  0  0  0  0
 11 12  1  0  0  0  0
 11 13  2  0  0  0  0
 10 14  1  1  0  0  0
 14 15  1  0  0  0  0
  3 16  1  0  0  0  0
  1 17  1  0  0  0  0
 15 18  1  0  0  0  0
 15 22  1  0  0  0  0
 18 19  1  0  0  0  0
 19 20  1  0  0  0  0
 20 21  1  0  0  0  0
 21 22  1  0  0  0  0
M  END
> <index>
29

> <Title>

> <chembl_id>
CHEMBL4757228

$$$$

  -OEChem-02052606112D

 20 21  0     0  0  0  0  0  0999 V2000
   20.3625   -4.6062    0.0000 C   0  0  0  0  0  0  0  0  0  0  0  0
   20.1479   -5.3945    0.0000 N   0  0  0  0  0  0  0  0  0  0  0  0
   20.8313   -5.8422    0.0000 N   0  0  0  0  0  0  0  0  0  0  0  0
   21.4684   -5.3306    0.0000 C   0  0  0  0  0  0  0  0  0  0  0  0
   21.1786   -4.5668    0.0000 C   0  0  0  0  0  0  0  0  0  0  0  0
   22.2569   -5.5453    0.0000 C   0  0  0  0  0  0  0  0  0  0  0  0
   22.4652   -6.3354    0.0000 O   0  0  0  0  0  0  0  0  0  0  0  0
   22.8370   -4.9697    0.0000 O   0  0  0  0  0  0  0  0  0  0  0  0
   20.8708   -6.6585    0.0000 C   0  0  0  0  0  0  0  0  0  0  0  0
   20.1836   -7.1008    0.0000 C   0  0  0  0  0  0  0  0  0  0  0  0
   19.4597   -6.7235    0.0000 C   0  0  0  0  0  0  0  0  0  0  0  0
   18.7730   -7.1651    0.0000 C   0  0  0  0  0  0  0  0  0  0  0  0
   18.8121   -7.9822    0.0000 C   0  0  0  0  0  0  0  0  0  0  0  0
   19.5437   -8.3557    0.0000 C   0  0  0  0  0  0  0  0  0  0  0  0
   20.2273   -7.9120    0.0000 C   0  0  0  0  0  0  0  0  0  0  0  0
   19.9469   -3.8961    0.0000 C   0  0  0  0  0  0  0  0  0  0  0  0
   20.3513   -3.1860    0.0000 C   0  0  0  0  0  0  0  0  0  0  0  0
   21.1684   -3.1811    0.0000 C   0  0  0  0  0  0  0  0  0  0  0  0
   19.9385   -2.4807    0.0000 C   0  0  0  0  0  0  0  0  0  0  0  0
   20.7517   -2.4722    0.0000 C   0  0  0  0  0  0  0  0  0  0  0  0
  1  2  2  0  0  0  0
  2  3  1  0  0  0  0
  3  4  1  0  0  0  0
  4  5  2  0  0  0  0
  1  5  1  0  0  0  0
  4  6  1  0  0  0  0
  6  7  2  0  0  0  0
  6  8  1  0  0  0  0
  3  9  1  0  0  0  0
  9 10  1  0  0  0  0
 10 11  2  0  0  0  0
 11 12  1  0  0  0  0
 12 13  2  0  0  0  0
 13 14  1  0  0  0  0
 14 15  2  0  0  0  0
 10 15  1  0  0  0  0
  1 16  1  0  0  0  0
 16 17  1  0  0  0  0
 17 18  1  0  0  0  0
 17 19  1  0  0  0  0
 17 20  1  0  0  0  0
M  END
> <index>
30

> <Title>

> <chembl_id>
CHEMBL4792809

$$$$

  -OEChem-02052606112D

 22 23  0     1  0  0  0  0  0999 V2000
   12.5111  -15.4126    0.0000 C   0  0  0  0  0  0  0  0  0  0  0  0
   12.5100  -16.2400    0.0000 C   0  0  0  0  0  0  0  0  0  0  0  0
   13.2248  -16.6529    0.0000 C   0  0  0  0  0  0  0  0  0  0  0  0
   13.9413  -16.2395    0.0000 C   0  0  0  0  0  0  0  0  0  0  0  0
   13.9385  -15.4090    0.0000 C   0  0  0  0  0  0  0  0  0  0  0  0
   13.2231  -14.9998    0.0000 C   0  0  0  0  0  0  0  0  0  0  0  0
   14.6513  -14.9938    0.0000 C   0  0  0  0  0  0  0  0  0  0  0  0
   15.3674  -15.4036    0.0000 N   0  0  0  0  0  0  0  0  0  0  0  0
   14.6483  -14.1688    0.0000 O   0  0  0  0  0  0  0  0  0  0  0  0
   16.0804  -14.9884    0.0000 C   0  0  3  0  0  0  0  0  0  0  0  0
   16.7964  -15.3982    0.0000 C   0  0  0  0  0  0  0  0  0  0  0  0
   16.0772  -14.1634    0.0000 C   0  0  0  0  0  0  0  0  0  0  0  0
   16.7901  -13.7482    0.0000 C   0  0  0  0  0  0  0  0  0  0  0  0
   16.7871  -12.9233    0.0000 C   0  0  0  0  0  0  0  0  0  0  0  0
   17.5062  -14.1581    0.0000 C   0  0  0  0  0  0  0  0  0  0  0  0
   13.2247  -17.4779    0.0000 Cl  0  0  0  0  0  0  0  0  0  0  0  0
   11.7966  -15.0003    0.0000 Cl  0  0  0  0  0  0  0  0  0  0  0  0
   16.8880  -16.2177    0.0000 N   0  0  0  0  0  0  0  0  0  0  0  0
   17.6957  -16.3862    0.0000 N   0  0  0  0  0  0  0  0  0  0  0  0
   18.1056  -15.6701    0.0000 N   0  0  0  0  0  0  0  0  0  0  0  0
   17.5511  -15.0592    0.0000 N   0  0  0  0  0  0  0  0  0  0  0  0
   17.5002  -13.3293    0.0000 C   0  0  0  0  0  0  0  0  0  0  0  0
  1  2  2  0  0  0  0
  2  3  1  0  0  0  0
  3  4  2  0  0  0  0
  4  5  1  0  0  0  0
  5  6  2  0  0  0  0
  1  6  1  0  0  0  0
  5  7  1  0  0  0  0
  7  8  1  0  0  0  0
  7  9  2  0  0  0  0
  8 10  1  0  0  0  0
 10 11  1  0  0  0  0
 10 12  1  0  0  0  0
 12 13  1  0  0  0  0
 13 14  1  0  0  0  0
 13 15  1  0  0  0  0
  3 16  1  0  0  0  0
  1 17  1  0  0  0  0
 11 18  2  0  0  0  0
 18 19  1  0  0  0  0
 19 20  1  0  0  0  0
 20 21  2  0  0  0  0
 11 21  1  0  0  0  0
 13 22  1  0  0  0  0
M  END
> <index>
31

> <Title>

> <chembl_id>
CHEMBL4799607

$$$$

  -OEChem-02052606112D

 18 18  0     1  0  0  0  0  0999 V2000
   21.0805   -4.5275    0.0000 C   0  0  0  0  0  0  0  0  0  0  0  0
   21.0793   -5.3471    0.0000 C   0  0  0  0  0  0  0  0  0  0  0  0
   21.7874   -5.7560    0.0000 C   0  0  0  0  0  0  0  0  0  0  0  0
   22.4970   -5.3466    0.0000 C   0  0  0  0  0  0  0  0  0  0  0  0
   22.4942   -4.5239    0.0000 C   0  0  0  0  0  0  0  0  0  0  0  0
   21.7856   -4.1187    0.0000 C   0  0  0  0  0  0  0  0  0  0  0  0
   23.2004   -4.1127    0.0000 C   0  0  0  0  0  0  0  0  0  0  0  0
   23.9096   -4.5186    0.0000 N   0  0  0  0  0  0  0  0  0  0  0  0
   23.1973   -3.2955    0.0000 O   0  0  0  0  0  0  0  0  0  0  0  0
   24.6158   -4.1073    0.0000 C   0  0  2  0  0  0  0  0  0  0  0  0
   25.3250   -4.5133    0.0000 C   0  0  0  0  0  0  0  0  0  0  0  0
   26.0312   -4.1020    0.0000 O   0  0  0  0  0  0  0  0  0  0  0  0
   25.3281   -5.3305    0.0000 O   0  0  0  0  0  0  0  0  0  0  0  0
   24.6127   -3.2902    0.0000 C   0  0  0  0  0  0  0  0  0  0  0  0
   25.3189   -2.8789    0.0000 C   0  0  0  0  0  0  0  0  0  0  0  0
   25.3158   -2.0617    0.0000 C   0  0  0  0  0  0  0  0  0  0  0  0
   26.0281   -3.2848    0.0000 C   0  0  0  0  0  0  0  0  0  0  0  0
   21.7872   -6.5732    0.0000 Cl  0  0  0  0  0  0  0  0  0  0  0  0
  1  2  2  0  0  0  0
  2  3  1  0  0  0  0
  3  4  2  0  0  0  0
  4  5  1  0  0  0  0
  5  6  2  0  0  0  0
  1  6  1  0  0  0  0
  5  7  1  0  0  0  0
  7  8  1  0  0  0  0
  7  9  2  0  0  0  0
  8 10  1  0  0  0  0
 10 11  1  0  0  0  0
 11 12  1  0  0  0  0
 11 13  2  0  0  0  0
 10 14  1  1  0  0  0
 14 15  1  0  0  0  0
 15 16  1  0  0  0  0
 15 17  1  0  0  0  0
  3 18  1  0  0  0  0
M  END
> <index>
32

> <Title>

> <chembl_id>
CHEMBL4757916

$$$$

  -OEChem-02052606112D

 22 22  0     1  0  0  0  0  0999 V2000
   13.1532  -13.4862    0.0000 C   0  0  0  0  0  0  0  0  0  0  0  0
   13.1520  -14.3136    0.0000 C   0  0  0  0  0  0  0  0  0  0  0  0
   13.8715  -14.7244    0.0000 C   0  0  0  0  0  0  0  0  0  0  0  0
   14.5844  -14.3131    0.0000 C   0  0  0  0  0  0  0  0  0  0  0  0
   14.5816  -13.4826    0.0000 C   0  0  0  0  0  0  0  0  0  0  0  0
   13.8697  -13.0713    0.0000 C   0  0  0  0  0  0  0  0  0  0  0  0
   15.2992  -13.0654    0.0000 C   0  0  0  0  0  0  0  0  0  0  0  0
   16.0116  -13.4772    0.0000 N   0  0  0  0  0  0  0  0  0  0  0  0
   15.2961  -12.2403    0.0000 O   0  0  0  0  0  0  0  0  0  0  0  0
   16.7251  -13.0600    0.0000 C   0  0  2  0  0  0  0  0  0  0  0  0
   17.4417  -13.4719    0.0000 C   0  0  0  0  0  0  0  0  0  0  0  0
   18.1552  -13.0547    0.0000 O   0  0  0  0  0  0  0  0  0  0  0  0
   17.4448  -14.2969    0.0000 O   0  0  0  0  0  0  0  0  0  0  0  0
   16.7220  -12.2350    0.0000 C   0  0  3  0  0  0  0  0  0  0  0  0
   17.4355  -11.8177    0.0000 O   0  0  0  0  0  0  0  0  0  0  0  0
   13.8713  -15.5535    0.0000 Cl  0  0  0  0  0  0  0  0  0  0  0  0
   12.4422  -13.0718    0.0000 Cl  0  0  0  0  0  0  0  0  0  0  0  0
   17.4321  -11.0134    0.0000 C   0  0  0  0  0  0  0  0  0  0  0  0
   18.1289  -10.6084    0.0000 C   0  0  0  0  0  0  0  0  0  0  0  0
   16.7361  -10.6142    0.0000 C   0  0  0  0  0  0  0  0  0  0  0  0
   17.4247  -10.2069    0.0000 C   0  0  0  0  0  0  0  0  0  0  0  0
   16.0219  -11.8356    0.0000 C   0  0  0  0  0  0  0  0  0  0  0  0
  1  2  2  0  0  0  0
  2  3  1  0  0  0  0
  3  4  2  0  0  0  0
  4  5  1  0  0  0  0
  5  6  2  0  0  0  0
  1  6  1  0  0  0  0
  5  7  1  0  0  0  0
  7  8  1  0  0  0  0
  7  9  2  0  0  0  0
 10  8  1  1  0  0  0
 10 11  1  0  0  0  0
 11 12  1  0  0  0  0
 11 13  2  0  0  0  0
 10 14  1  0  0  0  0
 14 15  1  0  0  0  0
  3 16  1  0  0  0  0
  1 17  1  0  0  0  0
 15 18  1  0  0  0  0
 18 19  1  0  0  0  0
 18 20  1  0  0  0  0
 18 21  1  0  0  0  0
 14 22  1  0  0  0  0
M  END
> <index>
33

> <Title>

> <chembl_id>
CHEMBL4757808

$$$$

  -OEChem-02052606112D

 38 42  0     1  0  0  0  0  0999 V2000
    0.2637    2.1737    0.0000 C   0  0  0  0  0  0  0  0  0  0  0  0
    0.9781    2.5862    0.0000 C   0  0  0  0  0  0  0  0  0  0  0  0
    1.6930    2.1737    0.0000 C   0  0  0  0  0  0  0  0  0  0  0  0
    1.6930    1.3485    0.0000 C   0  0  2  0  0  0  0  0  0  0  0  0
    0.9781    0.9359    0.0000 C   0  0  1  0  0  0  0  0  0  0  0  0
    0.2637    1.3485    0.0000 C   0  0  0  0  0  0  0  0  0  0  0  0
    0.9781    0.1110    0.0000 C   0  0  0  0  0  0  0  0  0  0  0  0
    1.6454   -0.3735    0.0000 N   0  0  0  0  0  0  0  0  0  0  0  0
    1.3906   -1.1577    0.0000 N   0  0  0  0  0  0  0  0  0  0  0  0
    0.5659   -1.1577    0.0000 C   0  0  0  0  0  0  0  0  0  0  0  0
    0.3114   -0.3735    0.0000 C   0  0  0  0  0  0  0  0  0  0  0  0
   -0.4853   -0.1601    0.0000 C   0  0  0  0  0  0  0  0  0  0  0  0
   -1.0688   -0.7431    0.0000 C   0  0  0  0  0  0  0  0  0  0  0  0
   -1.8630   -0.5296    0.0000 C   0  0  0  0  0  0  0  0  0  0  0  0
   -2.0766    0.2674    0.0000 C   0  0  0  0  0  0  0  0  0  0  0  0
   -1.4974    0.8488    0.0000 C   0  0  0  0  0  0  0  0  0  0  0  0
   -0.6998    0.6400    0.0000 C   0  0  0  0  0  0  0  0  0  0  0  0
   -2.8734    0.4807    0.0000 N   0  0  0  0  0  0  0  0  0  0  0  0
   -3.4567   -0.1024    0.0000 C   0  0  0  0  0  0  0  0  0  0  0  0
   -4.2535    0.1111    0.0000 C   0  0  0  0  0  0  0  0  0  0  0  0
   -4.4669    0.9079    0.0000 S   0  0  0  0  0  0  0  0  0  0  0  0
   -3.8837    1.4912    0.0000 C   0  0  0  0  0  0  0  0  0  0  0  0
   -3.0868    1.2777    0.0000 C   0  0  0  0  0  0  0  0  0  0  0  0
   -5.0513    1.4922    0.0000 O   0  0  0  0  0  0  0  0  0  0  0  0
   -5.2648    0.6955    0.0000 O   0  0  0  0  0  0  0  0  0  0  0  0
    1.8031   -1.8720    0.0000 C   0  0  0  0  0  0  0  0  0  0  0  0
    2.4072    0.9361    0.0000 C   0  0  0  0  0  0  0  0  0  0  0  0
    3.1217    1.3485    0.0000 N   0  0  0  0  0  0  0  0  0  0  0  0
    3.8361    0.9361    0.0000 C   0  0  0  0  0  0  0  0  0  0  0  0
    4.5505    1.3485    0.0000 C   0  0  0  0  0  0  0  0  0  0  0  0
    5.2648    1.7609    0.0000 N   0  0  0  0  0  0  0  0  0  0  0  0
    3.4229    0.2203    0.0000 C   0  0  0  0  0  0  0  0  0  0  0  0
    4.2477    0.2203    0.0000 C   0  0  0  0  0  0  0  0  0  0  0  0
    2.4072    0.1112    0.0000 O   0  0  0  0  0  0  0  0  0  0  0  0
    2.6280   -1.8720    0.0000 C   0  0  0  0  0  0  0  0  0  0  0  0
    3.0404   -2.5862    0.0000 F   0  0  0  0  0  0  0  0  0  0  0  0
    2.6280   -1.0471    0.0000 F   0  0  0  0  0  0  0  0  0  0  0  0
    3.3423   -1.4595    0.0000 F   0  0  0  0  0  0  0  0  0  0  0  0
  1  2  1  0  0  0  0
  2  3  1  0  0  0  0
  3  4  1  0  0  0  0
  4  5  1  0  0  0  0
  5  6  1  0  0  0  0
  1  6  1  0  0  0  0
  5  7  1  6  0  0  0
  7  8  2  0  0  0  0
  8  9  1  0  0  0  0
  9 10  1  0  0  0  0
 10 11  2  0  0  0  0
  7 11  1  0  0  0  0
 11 12  1  0  0  0  0
 12 13  2  0  0  0  0
 13 14  1  0  0  0  0
 14 15  2  0  0  0  0
 15 16  1  0  0  0  0
 16 17  2  0  0  0  0
 12 17  1  0  0  0  0
 15 18  1  0  0  0  0
 18 19  1  0  0  0  0
 19 20  1  0  0  0  0
 20 21  1  0  0  0  0
 21 22  1  0  0  0  0
 18 23  1  0  0  0  0
 22 23  1  0  0  0  0
 21 24  2  0  0  0  0
 21 25  2  0  0  0  0
  9 26  1  0  0  0  0
  4 27  1  1  0  0  0
 27 28  1  0  0  0  0
 28 29  1  0  0  0  0
 29 30  1  0  0  0  0
 30 31  3  0  0  0  0
 29 32  1  0  0  0  0
 32 33  1  0  0  0  0
 29 33  1  0  0  0  0
 27 34  2  0  0  0  0
 26 35  1  0  0  0  0
 35 36  1  0  0  0  0
 35 37  1  0  0  0  0
 35 38  1  0  0  0  0
M  END
> <index>
0

> <Title>

> <chembl_id>
CHEMBL5203247

$$$$

  -OEChem-02052606112D

 40 45  0     1  0  0  0  0  0999 V2000
    0.2637    2.8874    0.0000 C   0  0  0  0  0  0  0  0  0  0  0  0
    0.9781    3.3000    0.0000 C   0  0  0  0  0  0  0  0  0  0  0  0
    1.6929    2.8874    0.0000 C   0  0  0  0  0  0  0  0  0  0  0  0
    1.6929    2.0622    0.0000 C   0  0  2  0  0  0  0  0  0  0  0  0
    0.9781    1.6497    0.0000 C   0  0  1  0  0  0  0  0  0  0  0  0
    0.2637    2.0622    0.0000 C   0  0  0  0  0  0  0  0  0  0  0  0
    0.9781    0.8248    0.0000 C   0  0  0  0  0  0  0  0  0  0  0  0
    1.6453    0.3402    0.0000 N   0  0  0  0  0  0  0  0  0  0  0  0
    1.3906   -0.4438    0.0000 C   0  0  0  0  0  0  0  0  0  0  0  0
    0.5660   -0.4438    0.0000 S   0  0  0  0  0  0  0  0  0  0  0  0
    0.3113    0.3402    0.0000 C   0  0  0  0  0  0  0  0  0  0  0  0
   -0.4854    0.5537    0.0000 C   0  0  0  0  0  0  0  0  0  0  0  0
   -1.0688   -0.0293    0.0000 C   0  0  0  0  0  0  0  0  0  0  0  0
   -1.8629    0.1842    0.0000 C   0  0  0  0  0  0  0  0  0  0  0  0
   -2.0765    0.9812    0.0000 C   0  0  0  0  0  0  0  0  0  0  0  0
   -1.4973    1.5626    0.0000 C   0  0  0  0  0  0  0  0  0  0  0  0
   -0.6997    1.3537    0.0000 C   0  0  0  0  0  0  0  0  0  0  0  0
   -2.8733    1.1945    0.0000 N   0  0  0  0  0  0  0  0  0  0  0  0
   -3.4566    0.6114    0.0000 C   0  0  0  0  0  0  0  0  0  0  0  0
   -4.2533    0.8249    0.0000 C   0  0  0  0  0  0  0  0  0  0  0  0
   -4.4667    1.6217    0.0000 S   0  0  0  0  0  0  0  0  0  0  0  0
   -3.8835    2.2049    0.0000 C   0  0  0  0  0  0  0  0  0  0  0  0
   -3.0867    1.9915    0.0000 C   0  0  0  0  0  0  0  0  0  0  0  0
   -5.0511    2.2060    0.0000 O   0  0  0  0  0  0  0  0  0  0  0  0
   -5.2645    1.4093    0.0000 O   0  0  0  0  0  0  0  0  0  0  0  0
    1.8030   -1.1581    0.0000 C   0  0  0  0  0  0  0  0  0  0  0  0
    2.6279   -1.1584    0.0000 C   0  0  0  0  0  0  0  0  0  0  0  0
    3.0382   -1.8710    0.0000 C   0  0  0  0  0  0  0  0  0  0  0  0
    2.6258   -2.5855    0.0000 C   0  0  0  0  0  0  0  0  0  0  0  0
    1.8051   -2.5871    0.0000 C   0  0  0  0  0  0  0  0  0  0  0  0
    1.3887   -1.8756    0.0000 C   0  0  0  0  0  0  0  0  0  0  0  0
    3.0382   -3.3000    0.0000 F   0  0  0  0  0  0  0  0  0  0  0  0
    2.4071    1.6498    0.0000 C   0  0  0  0  0  0  0  0  0  0  0  0
    3.1215    2.0622    0.0000 N   0  0  0  0  0  0  0  0  0  0  0  0
    3.8359    1.6498    0.0000 C   0  0  0  0  0  0  0  0  0  0  0  0
    4.5503    2.0622    0.0000 C   0  0  0  0  0  0  0  0  0  0  0  0
    5.2645    2.4747    0.0000 N   0  0  0  0  0  0  0  0  0  0  0  0
    3.4228    0.9341    0.0000 C   0  0  0  0  0  0  0  0  0  0  0  0
    4.2476    0.9341    0.0000 C   0  0  0  0  0  0  0  0  0  0  0  0
    2.4071    0.8250    0.0000 O   0  0  0  0  0  0  0  0  0  0  0  0
  1  2  1  0  0  0  0
  2  3  1  0  0  0  0
  3  4  1  0  0  0  0
  4  5  1  0  0  0  0
  5  6  1  0  0  0  0
  1  6  1  0  0  0  0
  5  7  1  6  0  0  0
  7  8  1  0  0  0  0
  8  9  2  0  0  0  0
  9 10  1  0  0  0  0
 10 11  1  0  0  0  0
  7 11  2  0  0  0  0
 11 12  1  0  0  0  0
 12 13  2  0  0  0  0
 13 14  1  0  0  0  0
 14 15  2  0  0  0  0
 15 16  1  0  0  0  0
 16 17  2  0  0  0  0
 12 17  1  0  0  0  0
 15 18  1  0  0  0  0
 18 19  1  0  0  0  0
 19 20  1  0  0  0  0
 20 21  1  0  0  0  0
 21 22  1  0  0  0  0
 18 23  1  0  0  0  0
 22 23  1  0  0  0  0
 21 24  2  0  0  0  0
 21 25  2  0  0  0  0
  9 26  1  0  0  0  0
 26 27  2  0  0  0  0
 27 28  1  0  0  0  0
 28 29  2  0  0  0  0
 29 30  1  0  0  0  0
 30 31  2  0  0  0  0
 26 31  1  0  0  0  0
 29 32  1  0  0  0  0
  4 33  1  1  0  0  0
 33 34  1  0  0  0  0
 34 35  1  0  0  0  0
 35 36  1  0  0  0  0
 36 37  3  0  0  0  0
 35 38  1  0  0  0  0
 38 39  1  0  0  0  0
 35 39  1  0  0  0  0
 33 40  2  0  0  0  0
M  END
> <index>
1

> <Title>

> <chembl_id>
CHEMBL5187327

$$$$

  -OEChem-02052606112D

 40 44  0     1  0  0  0  0  0999 V2000
    0.2634    1.8154    0.0000 C   0  0  0  0  0  0  0  0  0  0  0  0
    0.9779    2.2280    0.0000 C   0  0  0  0  0  0  0  0  0  0  0  0
    1.6923    1.8154    0.0000 C   0  0  0  0  0  0  0  0  0  0  0  0
    1.6923    0.9905    0.0000 C   0  0  2  0  0  0  0  0  0  0  0  0
    0.9779    0.5780    0.0000 C   0  0  1  0  0  0  0  0  0  0  0  0
    0.2634    0.9905    0.0000 C   0  0  0  0  0  0  0  0  0  0  0  0
    0.9779   -0.2465    0.0000 C   0  0  0  0  0  0  0  0  0  0  0  0
    1.6447   -0.7311    0.0000 N   0  0  0  0  0  0  0  0  0  0  0  0
    1.3900   -1.5149    0.0000 N   0  0  0  0  0  0  0  0  0  0  0  0
    0.5656   -1.5149    0.0000 C   0  0  0  0  0  0  0  0  0  0  0  0
    0.3110   -0.7311    0.0000 C   0  0  0  0  0  0  0  0  0  0  0  0
   -0.4854   -0.5175    0.0000 C   0  0  0  0  0  0  0  0  0  0  0  0
   -1.0688   -1.1006    0.0000 C   0  0  0  0  0  0  0  0  0  0  0  0
   -1.8628   -0.8870    0.0000 C   0  0  0  0  0  0  0  0  0  0  0  0
   -2.0762   -0.0902    0.0000 C   0  0  0  0  0  0  0  0  0  0  0  0
   -1.4971    0.4910    0.0000 C   0  0  0  0  0  0  0  0  0  0  0  0
   -0.6998    0.2823    0.0000 C   0  0  0  0  0  0  0  0  0  0  0  0
    1.8024   -2.2293    0.0000 C   0  0  0  0  0  0  0  0  0  0  0  0
    2.6271   -2.2293    0.0000 C   0  0  0  0  0  0  0  0  0  0  0  0
    3.0394   -2.9434    0.0000 F   0  0  0  0  0  0  0  0  0  0  0  0
    3.0394   -1.5149    0.0000 F   0  0  0  0  0  0  0  0  0  0  0  0
    3.4518   -2.2293    0.0000 F   0  0  0  0  0  0  0  0  0  0  0  0
    2.4066    0.5782    0.0000 C   0  0  0  0  0  0  0  0  0  0  0  0
    3.1206    0.9905    0.0000 N   0  0  0  0  0  0  0  0  0  0  0  0
    3.8349    0.5782    0.0000 C   0  0  0  0  0  0  0  0  0  0  0  0
    4.5491    0.9905    0.0000 C   0  0  0  0  0  0  0  0  0  0  0  0
    5.2634    1.4029    0.0000 N   0  0  0  0  0  0  0  0  0  0  0  0
    3.4218   -0.1373    0.0000 C   0  0  0  0  0  0  0  0  0  0  0  0
    4.2465   -0.1373    0.0000 C   0  0  0  0  0  0  0  0  0  0  0  0
    2.4066   -0.2464    0.0000 O   0  0  0  0  0  0  0  0  0  0  0  0
    1.3910    2.9434    0.0000 Cl  0  0  0  0  0  0  0  0  0  0  0  0
    0.5664    2.9434    0.0000 Cl  0  0  0  0  0  0  0  0  0  0  0  0
   -2.8729    0.1231    0.0000 N   0  0  0  0  0  0  0  0  0  0  0  0
   -3.4560   -0.4599    0.0000 C   0  0  0  0  0  0  0  0  0  0  0  0
   -4.2526   -0.2465    0.0000 C   0  0  0  0  0  0  0  0  0  0  0  0
   -4.4661    0.5500    0.0000 S   0  0  0  0  0  0  0  0  0  0  0  0
   -3.8829    1.1332    0.0000 C   0  0  0  0  0  0  0  0  0  0  0  0
   -3.0863    0.9197    0.0000 C   0  0  0  0  0  0  0  0  0  0  0  0
   -5.0503    1.1342    0.0000 O   0  0  0  0  0  0  0  0  0  0  0  0
   -5.2634    0.3363    0.0000 O   0  0  0  0  0  0  0  0  0  0  0  0
  1  2  1  0  0  0  0
  2  3  1  0  0  0  0
  3  4  1  0  0  0  0
  4  5  1  0  0  0  0
  5  6  1  0  0  0  0
  1  6  1  0  0  0  0
  5  7  1  6  0  0  0
  7  8  2  0  0  0  0
  8  9  1  0  0  0  0
  9 10  1  0  0  0  0
 10 11  2  0  0  0  0
  7 11  1  0  0  0  0
 11 12  1  0  0  0  0
 12 13  2  0  0  0  0
 13 14  1  0  0  0  0
 14 15  2  0  0  0  0
 15 16  1  0  0  0  0
 16 17  2  0  0  0  0
 12 17  1  0  0  0  0
  9 18  1  0  0  0  0
 18 19  1  0  0  0  0
 19 20  1  0  0  0  0
 19 21  1  0  0  0  0
 19 22  1  0  0  0  0
  4 23  1  1  0  0  0
 23 24  1  0  0  0  0
 24 25  1  0  0  0  0
 25 26  1  0  0  0  0
 26 27  3  0  0  0  0
 25 28  1  0  0  0  0
 28 29  1  0  0  0  0
 25 29  1  0  0  0  0
 23 30  2  0  0  0  0
  2 31  1  0  0  0  0
  2 32  1  0  0  0  0
 15 33  1  0  0  0  0
 33 34  1  0  0  0  0
 34 35  1  0  0  0  0
 35 36  1  0  0  0  0
 36 37  1  0  0  0  0
 33 38  1  0  0  0  0
 37 38  1  0  0  0  0
 36 39  2  0  0  0  0
 36 40  2  0  0  0  0
M  END
> <index>
2

> <Title>

> <chembl_id>
CHEMBL5176632

$$$$

  -OEChem-02052606112D

 37 41  0     1  0  0  0  0  0999 V2000
   -0.2657    1.8156    0.0000 C   0  0  0  0  0  0  0  0  0  0  0  0
    0.4487    2.2281    0.0000 C   0  0  0  0  0  0  0  0  0  0  0  0
    1.1631    1.8156    0.0000 C   0  0  0  0  0  0  0  0  0  0  0  0
    1.1631    0.9906    0.0000 C   0  0  2  0  0  0  0  0  0  0  0  0
    0.4487    0.5780    0.0000 C   0  0  1  0  0  0  0  0  0  0  0  0
   -0.2657    0.9906    0.0000 C   0  0  0  0  0  0  0  0  0  0  0  0
    0.4487   -0.2466    0.0000 C   0  0  0  0  0  0  0  0  0  0  0  0
    1.1156   -0.7311    0.0000 N   0  0  0  0  0  0  0  0  0  0  0  0
    0.8609   -1.5150    0.0000 N   0  0  0  0  0  0  0  0  0  0  0  0
    0.0365   -1.5150    0.0000 C   0  0  0  0  0  0  0  0  0  0  0  0
   -0.2182   -0.7311    0.0000 C   0  0  0  0  0  0  0  0  0  0  0  0
   -1.0148   -0.5177    0.0000 C   0  0  0  0  0  0  0  0  0  0  0  0
   -1.5982   -1.1007    0.0000 C   0  0  0  0  0  0  0  0  0  0  0  0
   -2.3922   -0.8871    0.0000 C   0  0  0  0  0  0  0  0  0  0  0  0
   -2.6058   -0.0902    0.0000 C   0  0  0  0  0  0  0  0  0  0  0  0
   -2.0266    0.4910    0.0000 C   0  0  0  0  0  0  0  0  0  0  0  0
   -1.2291    0.2823    0.0000 C   0  0  0  0  0  0  0  0  0  0  0  0
    1.2732   -2.2293    0.0000 C   0  0  0  0  0  0  0  0  0  0  0  0
    2.0980   -2.2293    0.0000 C   0  0  0  0  0  0  0  0  0  0  0  0
    2.5104   -2.9437    0.0000 F   0  0  0  0  0  0  0  0  0  0  0  0
    2.5104   -1.5150    0.0000 F   0  0  0  0  0  0  0  0  0  0  0  0
    2.9228   -2.2293    0.0000 F   0  0  0  0  0  0  0  0  0  0  0  0
    1.8774    0.5782    0.0000 C   0  0  0  0  0  0  0  0  0  0  0  0
    2.5917    0.9906    0.0000 N   0  0  0  0  0  0  0  0  0  0  0  0
    3.3059    0.5782    0.0000 C   0  0  0  0  0  0  0  0  0  0  0  0
    4.0202    0.9906    0.0000 C   0  0  0  0  0  0  0  0  0  0  0  0
    4.7344    1.4030    0.0000 N   0  0  0  0  0  0  0  0  0  0  0  0
    2.8927   -0.1373    0.0000 C   0  0  0  0  0  0  0  0  0  0  0  0
    3.7175   -0.1373    0.0000 C   0  0  0  0  0  0  0  0  0  0  0  0
    1.8774   -0.2464    0.0000 O   0  0  0  0  0  0  0  0  0  0  0  0
    0.8618    2.9437    0.0000 F   0  0  0  0  0  0  0  0  0  0  0  0
    0.0370    2.9437    0.0000 F   0  0  0  0  0  0  0  0  0  0  0  0
   -3.4024    0.1231    0.0000 C   0  0  0  0  0  0  0  0  0  0  0  0
   -4.0430   -0.3956    0.0000 O   0  0  0  0  0  0  0  0  0  0  0  0
   -4.7344    0.0533    0.0000 C   0  0  0  0  0  0  0  0  0  0  0  0
   -4.5211    0.8496    0.0000 C   0  0  0  0  0  0  0  0  0  0  0  0
   -3.6978    0.8927    0.0000 N   0  0  0  0  0  0  0  0  0  0  0  0
  1  2  1  0  0  0  0
  2  3  1  0  0  0  0
  3  4  1  0  0  0  0
  4  5  1  0  0  0  0
  5  6  1  0  0  0  0
  1  6  1  0  0  0  0
  5  7  1  6  0  0  0
  7  8  2  0  0  0  0
  8  9  1  0  0  0  0
  9 10  1  0  0  0  0
 10 11  2  0  0  0  0
  7 11  1  0  0  0  0
 11 12  1  0  0  0  0
 12 13  2  0  0  0  0
 13 14  1  0  0  0  0
 14 15  2  0  0  0  0
 15 16  1  0  0  0  0
 16 17  2  0  0  0  0
 12 17  1  0  0  0  0
  9 18  1  0  0  0  0
 18 19  1  0  0  0  0
 19 20  1  0  0  0  0
 19 21  1  0  0  0  0
 19 22  1  0  0  0  0
  4 23  1  1  0  0  0
 23 24  1  0  0  0  0
 24 25  1  0  0  0  0
 25 26  1  0  0  0  0
 26 27  3  0  0  0  0
 25 28  1  0  0  0  0
 28 29  1  0  0  0  0
 25 29  1  0  0  0  0
 23 30  2  0  0  0  0
  2 31  1  0  0  0  0
  2 32  1  0  0  0  0
 15 33  1  0  0  0  0
 33 34  1  0  0  0  0
 34 35  1  0  0  0  0
 35 36  2  0  0  0  0
 36 37  1  0  0  0  0
 33 37  2  0  0  0  0
M  END
> <index>
3

> <Title>

> <chembl_id>
CHEMBL5177683

$$$$

  -OEChem-02052606112D

 40 44  0     1  0  0  0  0  0999 V2000
    0.0496    1.8155    0.0000 C   0  0  0  0  0  0  0  0  0  0  0  0
    0.7641    2.2280    0.0000 C   0  0  0  0  0  0  0  0  0  0  0  0
    1.4786    1.8155    0.0000 C   0  0  0  0  0  0  0  0  0  0  0  0
    1.4786    0.9905    0.0000 C   0  0  2  0  0  0  0  0  0  0  0  0
    0.7641    0.5780    0.0000 C   0  0  1  0  0  0  0  0  0  0  0  0
    0.0496    0.9905    0.0000 C   0  0  0  0  0  0  0  0  0  0  0  0
    0.7641   -0.2466    0.0000 C   0  0  0  0  0  0  0  0  0  0  0  0
    1.4310   -0.7311    0.0000 N   0  0  0  0  0  0  0  0  0  0  0  0
    1.1762   -1.5152    0.0000 N   0  0  0  0  0  0  0  0  0  0  0  0
    0.3520   -1.5152    0.0000 C   0  0  0  0  0  0  0  0  0  0  0  0
    0.0972   -0.7311    0.0000 C   0  0  0  0  0  0  0  0  0  0  0  0
   -0.6993   -0.5175    0.0000 C   0  0  0  0  0  0  0  0  0  0  0  0
   -1.2826   -1.1007    0.0000 C   0  0  0  0  0  0  0  0  0  0  0  0
   -2.0767   -0.8871    0.0000 C   0  0  0  0  0  0  0  0  0  0  0  0
   -2.2902   -0.0903    0.0000 C   0  0  0  0  0  0  0  0  0  0  0  0
   -1.7110    0.4910    0.0000 C   0  0  0  0  0  0  0  0  0  0  0  0
   -0.9136    0.2823    0.0000 C   0  0  0  0  0  0  0  0  0  0  0  0
    1.5885   -2.2293    0.0000 C   0  0  0  0  0  0  0  0  0  0  0  0
    2.4134   -2.2293    0.0000 C   0  0  0  0  0  0  0  0  0  0  0  0
    2.8258   -2.9436    0.0000 F   0  0  0  0  0  0  0  0  0  0  0  0
    2.8258   -1.5152    0.0000 F   0  0  0  0  0  0  0  0  0  0  0  0
    3.2381   -2.2293    0.0000 F   0  0  0  0  0  0  0  0  0  0  0  0
    2.1928    0.5780    0.0000 C   0  0  0  0  0  0  0  0  0  0  0  0
    2.9070    0.9905    0.0000 N   0  0  0  0  0  0  0  0  0  0  0  0
    3.6213    0.5780    0.0000 C   0  0  0  0  0  0  0  0  0  0  0  0
    4.3355    0.9905    0.0000 C   0  0  0  0  0  0  0  0  0  0  0  0
    5.0498    1.4028    0.0000 N   0  0  0  0  0  0  0  0  0  0  0  0
    3.2082   -0.1373    0.0000 C   0  0  0  0  0  0  0  0  0  0  0  0
    4.0328   -0.1373    0.0000 C   0  0  0  0  0  0  0  0  0  0  0  0
    2.1928   -0.2465    0.0000 O   0  0  0  0  0  0  0  0  0  0  0  0
    1.1772    2.9436    0.0000 Cl  0  0  0  0  0  0  0  0  0  0  0  0
    0.3525    2.9436    0.0000 Cl  0  0  0  0  0  0  0  0  0  0  0  0
   -3.0869    0.1231    0.0000 C   0  0  0  0  0  0  0  0  0  0  0  0
   -3.6700   -0.4600    0.0000 N   0  0  0  0  0  0  0  0  0  0  0  0
   -3.3003    0.9197    0.0000 O   0  0  0  0  0  0  0  0  0  0  0  0
   -3.4566   -1.2566    0.0000 C   0  0  0  0  0  0  0  0  0  0  0  0
   -4.0397   -1.8398    0.0000 C   0  0  0  0  0  0  0  0  0  0  0  0
   -4.8362   -1.6263    0.0000 O   0  0  0  0  0  0  0  0  0  0  0  0
   -5.0498   -0.8297    0.0000 C   0  0  0  0  0  0  0  0  0  0  0  0
   -4.4666   -0.2466    0.0000 C   0  0  0  0  0  0  0  0  0  0  0  0
  1  2  1  0  0  0  0
  2  3  1  0  0  0  0
  3  4  1  0  0  0  0
  4  5  1  0  0  0  0
  5  6  1  0  0  0  0
  1  6  1  0  0  0  0
  5  7  1  6  0  0  0
  7  8  2  0  0  0  0
  8  9  1  0  0  0  0
  9 10  1  0  0  0  0
 10 11  2  0  0  0  0
  7 11  1  0  0  0  0
 11 12  1  0  0  0  0
 12 13  2  0  0  0  0
 13 14  1  0  0  0  0
 14 15  2  0  0  0  0
 15 16  1  0  0  0  0
 16 17  2  0  0  0  0
 12 17  1  0  0  0  0
  9 18  1  0  0  0  0
 18 19  1  0  0  0  0
 19 20  1  0  0  0  0
 19 21  1  0  0  0  0
 19 22  1  0  0  0  0
  4 23  1  1  0  0  0
 23 24  1  0  0  0  0
 24 25  1  0  0  0  0
 25 26  1  0  0  0  0
 26 27  3  0  0  0  0
 25 28  1  0  0  0  0
 28 29  1  0  0  0  0
 25 29  1  0  0  0  0
 23 30  2  0  0  0  0
  2 31  1  0  0  0  0
  2 32  1  0  0  0  0
 15 33  1  0  0  0  0
 33 34  1  0  0  0  0
 33 35  2  0  0  0  0
 34 36  1  0  0  0  0
 36 37  1  0  0  0  0
 37 38  1  0  0  0  0
 38 39  1  0  0  0  0
 39 40  1  0  0  0  0
 34 40  1  0  0  0  0
M  END
> <index>
4

> <Title>

> <chembl_id>
CHEMBL5197995

$$$$

  -OEChem-02052606112D

 36 39  0     1  0  0  0  0  0999 V2000
    4.6235   -6.8968    0.0000 C   0  0  0  0  0  0  0  0  0  0  0  0
    4.6235   -7.7264    0.0000 C   0  0  0  0  0  0  0  0  0  0  0  0
    5.3379   -8.1388    0.0000 C   0  0  0  0  0  0  0  0  0  0  0  0
    6.0569   -7.7264    0.0000 C   0  0  0  0  0  0  0  0  0  0  0  0
    6.0569   -6.8968    0.0000 C   0  0  0  0  0  0  0  0  0  0  0  0
    5.3379   -6.4798    0.0000 C   0  0  0  0  0  0  0  0  0  0  0  0
    3.9081   -6.4861    0.0000 S   0  0  0  0  0  0  0  0  0  0  0  0
    3.1947   -6.9003    0.0000 C   0  0  0  0  0  0  0  0  0  0  0  0
    4.3119   -5.7694    0.0000 O   0  0  0  0  0  0  0  0  0  0  0  0
    3.4869   -5.7694    0.0000 O   0  0  0  0  0  0  0  0  0  0  0  0
    6.7709   -8.1393    0.0000 C   0  0  0  0  0  0  0  0  0  0  0  0
    7.0240   -8.9219    0.0000 C   0  0  0  0  0  0  0  0  0  0  0  0
    7.8487   -8.9244    0.0000 N   0  0  0  0  0  0  0  0  0  0  0  0
    8.1059   -8.1400    0.0000 N   0  0  0  0  0  0  0  0  0  0  0  0
    7.4397   -7.6536    0.0000 C   0  0  0  0  0  0  0  0  0  0  0  0
    8.2520   -9.6441    0.0000 C   0  0  0  0  0  0  0  0  0  0  0  0
    9.0770   -9.6545    0.0000 C   0  0  0  0  0  0  0  0  0  0  0  0
    9.4803  -10.3741    0.0000 F   0  0  0  0  0  0  0  0  0  0  0  0
    9.4985   -8.9454    0.0000 F   0  0  0  0  0  0  0  0  0  0  0  0
    9.8985   -9.6512    0.0000 F   0  0  0  0  0  0  0  0  0  0  0  0
    7.4408   -6.8286    0.0000 C   0  0  1  0  0  0  0  0  0  0  0  0
    8.1588   -6.4215    0.0000 C   0  0  1  0  0  0  0  0  0  0  0  0
    8.1618   -5.6001    0.0000 C   0  0  0  0  0  0  0  0  0  0  0  0
    7.4499   -5.1829    0.0000 C   0  0  0  0  0  0  0  0  0  0  0  0
    6.7330   -5.5932    0.0000 C   0  0  0  0  0  0  0  0  0  0  0  0
    6.7283   -6.4208    0.0000 C   0  0  0  0  0  0  0  0  0  0  0  0
    7.8545   -4.4678    0.0000 Cl  0  0  0  0  0  0  0  0  0  0  0  0
    7.0296   -4.4678    0.0000 Cl  0  0  0  0  0  0  0  0  0  0  0  0
    8.8709   -6.8381    0.0000 C   0  0  0  0  0  0  0  0  0  0  0  0
    8.8661   -7.6630    0.0000 O   0  0  0  0  0  0  0  0  0  0  0  0
    9.5877   -6.4297    0.0000 N   0  0  0  0  0  0  0  0  0  0  0  0
   10.2946   -6.8461    0.0000 C   0  0  0  0  0  0  0  0  0  0  0  0
    9.8775   -7.5551    0.0000 C   0  0  0  0  0  0  0  0  0  0  0  0
   10.7023   -7.5662    0.0000 C   0  0  0  0  0  0  0  0  0  0  0  0
   11.0031   -6.4248    0.0000 C   0  0  0  0  0  0  0  0  0  0  0  0
   11.7115   -6.0034    0.0000 N   0  0  0  0  0  0  0  0  0  0  0  0
  1  6  2  0  0  0  0
 17 18  1  0  0  0  0
  7  9  2  0  0  0  0
 17 19  1  0  0  0  0
  2  3  2  0  0  0  0
 17 20  1  0  0  0  0
  7 10  2  0  0  0  0
 21 15  1  6  0  0  0
 21 22  1  0  0  0  0
  3  4  1  0  0  0  0
  4 11  1  0  0  0  0
 11 12  2  0  0  0  0
  4  5  2  0  0  0  0
  5  6  1  0  0  0  0
 21 26  1  0  0  0  0
 22 23  1  0  0  0  0
 23 24  1  0  0  0  0
 24 25  1  0  0  0  0
 25 26  1  0  0  0  0
 24 27  1  0  0  0  0
  1  7  1  0  0  0  0
 24 28  1  0  0  0  0
 12 13  1  0  0  0  0
 22 29  1  1  0  0  0
 13 14  1  0  0  0  0
 29 30  2  0  0  0  0
 14 15  2  0  0  0  0
 29 31  1  0  0  0  0
 11 15  1  0  0  0  0
 31 32  1  0  0  0  0
 32 33  1  0  0  0  0
 33 34  1  0  0  0  0
 32 34  1  0  0  0  0
  1  2  1  0  0  0  0
 13 16  1  0  0  0  0
  7  8  1  0  0  0  0
 32 35  1  0  0  0  0
 16 17  1  0  0  0  0
 35 36  3  0  0  0  0
M  END
> <index>
5

> <Title>

> <chembl_id>
CHEMBL523352

$$$$

  -OEChem-02052606112D

 40 45  0     1  0  0  0  0  0999 V2000
    0.2637    2.8870    0.0000 C   0  0  0  0  0  0  0  0  0  0  0  0
    0.9781    3.2995    0.0000 C   0  0  0  0  0  0  0  0  0  0  0  0
    1.6927    2.8870    0.0000 C   0  0  0  0  0  0  0  0  0  0  0  0
    1.6927    2.0619    0.0000 C   0  0  2  0  0  0  0  0  0  0  0  0
    0.9781    1.6495    0.0000 C   0  0  1  0  0  0  0  0  0  0  0  0
    0.2637    2.0619    0.0000 C   0  0  0  0  0  0  0  0  0  0  0  0
    0.9781    0.8247    0.0000 C   0  0  0  0  0  0  0  0  0  0  0  0
    1.6451    0.3402    0.0000 O   0  0  0  0  0  0  0  0  0  0  0  0
    1.3904   -0.4438    0.0000 C   0  0  0  0  0  0  0  0  0  0  0  0
    0.5659   -0.4438    0.0000 N   0  0  0  0  0  0  0  0  0  0  0  0
    0.3113    0.3402    0.0000 C   0  0  0  0  0  0  0  0  0  0  0  0
   -0.4853    0.5536    0.0000 C   0  0  0  0  0  0  0  0  0  0  0  0
   -1.0687   -0.0293    0.0000 C   0  0  0  0  0  0  0  0  0  0  0  0
   -1.8627    0.1842    0.0000 C   0  0  0  0  0  0  0  0  0  0  0  0
   -2.0762    0.9811    0.0000 C   0  0  0  0  0  0  0  0  0  0  0  0
   -1.4971    1.5624    0.0000 C   0  0  0  0  0  0  0  0  0  0  0  0
   -0.6997    1.3536    0.0000 C   0  0  0  0  0  0  0  0  0  0  0  0
    1.8028   -1.1580    0.0000 C   0  0  0  0  0  0  0  0  0  0  0  0
    2.4068    1.6496    0.0000 C   0  0  0  0  0  0  0  0  0  0  0  0
    3.1211    2.0619    0.0000 N   0  0  0  0  0  0  0  0  0  0  0  0
    3.8354    1.6496    0.0000 C   0  0  0  0  0  0  0  0  0  0  0  0
    4.5496    2.0619    0.0000 C   0  0  0  0  0  0  0  0  0  0  0  0
    5.2638    2.4743    0.0000 N   0  0  0  0  0  0  0  0  0  0  0  0
    3.4223    0.9340    0.0000 C   0  0  0  0  0  0  0  0  0  0  0  0
    4.2470    0.9340    0.0000 C   0  0  0  0  0  0  0  0  0  0  0  0
    2.4068    0.8249    0.0000 O   0  0  0  0  0  0  0  0  0  0  0  0
   -2.8729    1.1944    0.0000 N   0  0  0  0  0  0  0  0  0  0  0  0
   -3.4561    0.6113    0.0000 C   0  0  0  0  0  0  0  0  0  0  0  0
   -4.2527    0.8248    0.0000 C   0  0  0  0  0  0  0  0  0  0  0  0
   -4.4661    1.6215    0.0000 S   0  0  0  0  0  0  0  0  0  0  0  0
   -3.8830    2.2046    0.0000 C   0  0  0  0  0  0  0  0  0  0  0  0
   -3.0863    1.9912    0.0000 C   0  0  0  0  0  0  0  0  0  0  0  0
   -5.0504    2.2057    0.0000 O   0  0  0  0  0  0  0  0  0  0  0  0
   -5.2638    1.4091    0.0000 O   0  0  0  0  0  0  0  0  0  0  0  0
    2.6276   -1.1583    0.0000 C   0  0  0  0  0  0  0  0  0  0  0  0
    3.0379   -1.8708    0.0000 C   0  0  0  0  0  0  0  0  0  0  0  0
    2.6255   -2.5852    0.0000 C   0  0  0  0  0  0  0  0  0  0  0  0
    1.8049   -2.5868    0.0000 C   0  0  0  0  0  0  0  0  0  0  0  0
    1.3886   -1.8754    0.0000 C   0  0  0  0  0  0  0  0  0  0  0  0
    3.0378   -3.2995    0.0000 F   0  0  0  0  0  0  0  0  0  0  0  0
  1  2  1  0  0  0  0
  2  3  1  0  0  0  0
  3  4  1  0  0  0  0
  4  5  1  0  0  0  0
  5  6  1  0  0  0  0
  1  6  1  0  0  0  0
  5  7  1  6  0  0  0
  7  8  1  0  0  0  0
  8  9  1  0  0  0  0
  9 10  2  0  0  0  0
 10 11  1  0  0  0  0
  7 11  2  0  0  0  0
 11 12  1  0  0  0  0
 12 13  2  0  0  0  0
 13 14  1  0  0  0  0
 14 15  2  0  0  0  0
 15 16  1  0  0  0  0
 16 17  2  0  0  0  0
 12 17  1  0  0  0  0
  9 18  1  0  0  0  0
  4 19  1  1  0  0  0
 19 20  1  0  0  0  0
 20 21  1  0  0  0  0
 21 22  1  0  0  0  0
 22 23  3  0  0  0  0
 21 24  1  0  0  0  0
 24 25  1  0  0  0  0
 21 25  1  0  0  0  0
 19 26  2  0  0  0  0
 15 27  1  0  0  0  0
 27 28  1  0  0  0  0
 28 29  1  0  0  0  0
 29 30  1  0  0  0  0
 30 31  1  0  0  0  0
 27 32  1  0  0  0  0
 31 32  1  0  0  0  0
 30 33  2  0  0  0  0
 30 34  2  0  0  0  0
 18 35  2  0  0  0  0
 35 36  1  0  0  0  0
 36 37  2  0  0  0  0
 37 38  1  0  0  0  0
 38 39  2  0  0  0  0
 18 39  1  0  0  0  0
 37 40  1  0  0  0  0
M  END
> <index>
6

> <Title>

> <chembl_id>
CHEMBL5178296

$$$$

  -OEChem-02052606112D

 41 46  0     1  0  0  0  0  0999 V2000
    0.2637    2.5307    0.0000 C   0  0  0  0  0  0  0  0  0  0  0  0
    0.9781    2.9432    0.0000 C   0  0  0  0  0  0  0  0  0  0  0  0
    1.6927    2.5307    0.0000 C   0  0  0  0  0  0  0  0  0  0  0  0
    1.6927    1.7056    0.0000 C   0  0  2  0  0  0  0  0  0  0  0  0
    0.9781    1.2931    0.0000 C   0  0  1  0  0  0  0  0  0  0  0  0
    0.2637    1.7056    0.0000 C   0  0  0  0  0  0  0  0  0  0  0  0
    0.9781    0.4684    0.0000 C   0  0  0  0  0  0  0  0  0  0  0  0
    1.6451   -0.0160    0.0000 N   0  0  0  0  0  0  0  0  0  0  0  0
    1.3904   -0.8001    0.0000 N   0  0  0  0  0  0  0  0  0  0  0  0
    0.5659   -0.8001    0.0000 C   0  0  0  0  0  0  0  0  0  0  0  0
    0.3113   -0.0160    0.0000 C   0  0  0  0  0  0  0  0  0  0  0  0
   -0.4853    0.1974    0.0000 C   0  0  0  0  0  0  0  0  0  0  0  0
   -1.0688   -0.3857    0.0000 C   0  0  0  0  0  0  0  0  0  0  0  0
   -1.8628   -0.1720    0.0000 C   0  0  0  0  0  0  0  0  0  0  0  0
   -2.0762    0.6247    0.0000 C   0  0  0  0  0  0  0  0  0  0  0  0
   -1.4972    1.2061    0.0000 C   0  0  0  0  0  0  0  0  0  0  0  0
   -0.6997    0.9974    0.0000 C   0  0  0  0  0  0  0  0  0  0  0  0
    1.8028   -1.5144    0.0000 C   0  0  0  0  0  0  0  0  0  0  0  0
    2.4070    1.2933    0.0000 C   0  0  0  0  0  0  0  0  0  0  0  0
    3.1212    1.7056    0.0000 N   0  0  0  0  0  0  0  0  0  0  0  0
    3.8356    1.2933    0.0000 C   0  0  0  0  0  0  0  0  0  0  0  0
    4.5498    1.7056    0.0000 C   0  0  0  0  0  0  0  0  0  0  0  0
    5.2641    2.1181    0.0000 N   0  0  0  0  0  0  0  0  0  0  0  0
    3.4224    0.5777    0.0000 C   0  0  0  0  0  0  0  0  0  0  0  0
    4.2472    0.5777    0.0000 C   0  0  0  0  0  0  0  0  0  0  0  0
    2.4070    0.4685    0.0000 O   0  0  0  0  0  0  0  0  0  0  0  0
   -2.8730    0.8382    0.0000 N   0  0  0  0  0  0  0  0  0  0  0  0
   -3.4563    0.2550    0.0000 C   0  0  0  0  0  0  0  0  0  0  0  0
   -4.2529    0.4685    0.0000 C   0  0  0  0  0  0  0  0  0  0  0  0
   -4.4664    1.2652    0.0000 S   0  0  0  0  0  0  0  0  0  0  0  0
   -3.8832    1.8484    0.0000 C   0  0  0  0  0  0  0  0  0  0  0  0
   -3.0865    1.6349    0.0000 C   0  0  0  0  0  0  0  0  0  0  0  0
   -5.0507    1.8494    0.0000 O   0  0  0  0  0  0  0  0  0  0  0  0
   -5.2641    1.0528    0.0000 O   0  0  0  0  0  0  0  0  0  0  0  0
    2.6276   -1.5147    0.0000 C   0  0  0  0  0  0  0  0  0  0  0  0
    3.0381   -2.2272    0.0000 C   0  0  0  0  0  0  0  0  0  0  0  0
    2.6256   -2.9417    0.0000 C   0  0  0  0  0  0  0  0  0  0  0  0
    1.8049   -2.9432    0.0000 C   0  0  0  0  0  0  0  0  0  0  0  0
    1.3886   -2.2317    0.0000 C   0  0  0  0  0  0  0  0  0  0  0  0
    3.8629   -2.2272    0.0000 O   0  0  0  0  0  0  0  0  0  0  0  0
    4.2753   -1.5129    0.0000 C   0  0  0  0  0  0  0  0  0  0  0  0
  1  2  1  0  0  0  0
  2  3  1  0  0  0  0
  3  4  1  0  0  0  0
  4  5  1  0  0  0  0
  5  6  1  0  0  0  0
  1  6  1  0  0  0  0
  5  7  1  6  0  0  0
  7  8  2  0  0  0  0
  8  9  1  0  0  0  0
  9 10  1  0  0  0  0
 10 11  2  0  0  0  0
  7 11  1  0  0  0  0
 11 12  1  0  0  0  0
 12 13  2  0  0  0  0
 13 14  1  0  0  0  0
 14 15  2  0  0  0  0
 15 16  1  0  0  0  0
 16 17  2  0  0  0  0
 12 17  1  0  0  0  0
  9 18  1  0  0  0  0
  4 19  1  1  0  0  0
 19 20  1  0  0  0  0
 20 21  1  0  0  0  0
 21 22  1  0  0  0  0
 22 23  3  0  0  0  0
 21 24  1  0  0  0  0
 24 25  1  0  0  0  0
 21 25  1  0  0  0  0
 19 26  2  0  0  0  0
 15 27  1  0  0  0  0
 27 28  1  0  0  0  0
 28 29  1  0  0  0  0
 29 30  1  0  0  0  0
 30 31  1  0  0  0  0
 27 32  1  0  0  0  0
 31 32  1  0  0  0  0
 30 33  2  0  0  0  0
 30 34  2  0  0  0  0
 18 35  2  0  0  0  0
 35 36  1  0  0  0  0
 36 37  2  0  0  0  0
 37 38  1  0  0  0  0
 38 39  2  0  0  0  0
 18 39  1  0  0  0  0
 36 40  1  0  0  0  0
 40 41  1  0  0  0  0
M  END
> <index>
7

> <Title>

> <chembl_id>
CHEMBL5203617

$$$$

  -OEChem-02052606112D

 40 44  0     1  0  0  0  0  0999 V2000
    0.3274    1.8154    0.0000 C   0  0  0  0  0  0  0  0  0  0  0  0
    1.0420    2.2280    0.0000 C   0  0  0  0  0  0  0  0  0  0  0  0
    1.7564    1.8154    0.0000 C   0  0  0  0  0  0  0  0  0  0  0  0
    1.7564    0.9905    0.0000 C   0  0  2  0  0  0  0  0  0  0  0  0
    1.0420    0.5780    0.0000 C   0  0  1  0  0  0  0  0  0  0  0  0
    0.3274    0.9905    0.0000 C   0  0  0  0  0  0  0  0  0  0  0  0
    1.0420   -0.2465    0.0000 C   0  0  0  0  0  0  0  0  0  0  0  0
    1.7088   -0.7311    0.0000 N   0  0  0  0  0  0  0  0  0  0  0  0
    1.4541   -1.5149    0.0000 N   0  0  0  0  0  0  0  0  0  0  0  0
    0.6298   -1.5149    0.0000 C   0  0  0  0  0  0  0  0  0  0  0  0
    0.3751   -0.7311    0.0000 C   0  0  0  0  0  0  0  0  0  0  0  0
   -0.4214   -0.5175    0.0000 C   0  0  0  0  0  0  0  0  0  0  0  0
   -1.0047   -1.1006    0.0000 C   0  0  0  0  0  0  0  0  0  0  0  0
   -1.7987   -0.8870    0.0000 C   0  0  0  0  0  0  0  0  0  0  0  0
   -2.0123   -0.0902    0.0000 C   0  0  0  0  0  0  0  0  0  0  0  0
   -1.4331    0.4910    0.0000 C   0  0  0  0  0  0  0  0  0  0  0  0
   -0.6357    0.2823    0.0000 C   0  0  0  0  0  0  0  0  0  0  0  0
    1.8664   -2.2293    0.0000 C   0  0  0  0  0  0  0  0  0  0  0  0
    2.6911   -2.2293    0.0000 C   0  0  0  0  0  0  0  0  0  0  0  0
    3.1035   -2.9434    0.0000 F   0  0  0  0  0  0  0  0  0  0  0  0
    3.1035   -1.5149    0.0000 F   0  0  0  0  0  0  0  0  0  0  0  0
    3.5159   -2.2293    0.0000 F   0  0  0  0  0  0  0  0  0  0  0  0
    2.4706    0.5782    0.0000 C   0  0  0  0  0  0  0  0  0  0  0  0
    3.1848    0.9905    0.0000 N   0  0  0  0  0  0  0  0  0  0  0  0
    3.8990    0.5782    0.0000 C   0  0  0  0  0  0  0  0  0  0  0  0
    4.6132    0.9905    0.0000 C   0  0  0  0  0  0  0  0  0  0  0  0
    5.3274    1.4029    0.0000 N   0  0  0  0  0  0  0  0  0  0  0  0
    3.4859   -0.1373    0.0000 C   0  0  0  0  0  0  0  0  0  0  0  0
    4.3105   -0.1373    0.0000 C   0  0  0  0  0  0  0  0  0  0  0  0
    2.4706   -0.2464    0.0000 O   0  0  0  0  0  0  0  0  0  0  0  0
    1.4549    2.9434    0.0000 F   0  0  0  0  0  0  0  0  0  0  0  0
    0.6304    2.9434    0.0000 F   0  0  0  0  0  0  0  0  0  0  0  0
   -2.8089    0.1231    0.0000 C   0  0  0  0  0  0  0  0  0  0  0  0
   -3.5352   -0.2962    0.0000 C   0  0  0  0  0  0  0  0  0  0  0  0
   -3.9477    0.4180    0.0000 N   0  0  0  0  0  0  0  0  0  0  0  0
   -3.2212    0.8374    0.0000 C   0  0  0  0  0  0  0  0  0  0  0  0
   -4.7443    0.6314    0.0000 S   0  0  0  0  0  0  0  0  0  0  0  0
   -5.3274    0.0483    0.0000 C   0  0  0  0  0  0  0  0  0  0  0  0
   -4.3311    1.3470    0.0000 O   0  0  0  0  0  0  0  0  0  0  0  0
   -5.1566    1.3470    0.0000 O   0  0  0  0  0  0  0  0  0  0  0  0
  1  2  1  0  0  0  0
  2  3  1  0  0  0  0
  3  4  1  0  0  0  0
  4  5  1  0  0  0  0
  5  6  1  0  0  0  0
  1  6  1  0  0  0  0
  5  7  1  6  0  0  0
  7  8  2  0  0  0  0
  8  9  1  0  0  0  0
  9 10  1  0  0  0  0
 10 11  2  0  0  0  0
  7 11  1  0  0  0  0
 11 12  1  0  0  0  0
 12 13  2  0  0  0  0
 13 14  1  0  0  0  0
 14 15  2  0  0  0  0
 15 16  1  0  0  0  0
 16 17  2  0  0  0  0
 12 17  1  0  0  0  0
  9 18  1  0  0  0  0
 18 19  1  0  0  0  0
 19 20  1  0  0  0  0
 19 21  1  0  0  0  0
 19 22  1  0  0  0  0
  4 23  1  1  0  0  0
 23 24  1  0  0  0  0
 24 25  1  0  0  0  0
 25 26  1  0  0  0  0
 26 27  3  0  0  0  0
 25 28  1  0  0  0  0
 28 29  1  0  0  0  0
 25 29  1  0  0  0  0
 23 30  2  0  0  0  0
  2 31  1  0  0  0  0
  2 32  1  0  0  0  0
 15 33  1  0  0  0  0
 33 34  1  0  0  0  0
 34 35  1  0  0  0  0
 35 36  1  0  0  0  0
 33 36  1  0  0  0  0
 35 37  1  0  0  0  0
 37 38  1  0  0  0  0
 37 39  2  0  0  0  0
 37 40  2  0  0  0  0
M  END
> <index>
8

> <Title>

> <chembl_id>
CHEMBL5192453

$$$$

  -OEChem-02052606112D

 37 42  0     1  0  0  0  0  0999 V2000
    0.2637    2.0228    0.0000 C   0  0  0  0  0  0  0  0  0  0  0  0
    0.9781    2.4352    0.0000 C   0  0  0  0  0  0  0  0  0  0  0  0
    1.6927    2.0228    0.0000 C   0  0  0  0  0  0  0  0  0  0  0  0
    1.6927    1.1978    0.0000 C   0  0  2  0  0  0  0  0  0  0  0  0
    0.9781    0.7853    0.0000 C   0  0  1  0  0  0  0  0  0  0  0  0
    0.2637    1.1978    0.0000 C   0  0  0  0  0  0  0  0  0  0  0  0
    0.9781   -0.0393    0.0000 C   0  0  0  0  0  0  0  0  0  0  0  0
    1.6451   -0.5239    0.0000 N   0  0  0  0  0  0  0  0  0  0  0  0
    1.3904   -1.3079    0.0000 N   0  0  0  0  0  0  0  0  0  0  0  0
    0.5659   -1.3079    0.0000 C   0  0  0  0  0  0  0  0  0  0  0  0
    0.3113   -0.5239    0.0000 C   0  0  0  0  0  0  0  0  0  0  0  0
   -0.4853   -0.3104    0.0000 C   0  0  0  0  0  0  0  0  0  0  0  0
   -1.0687   -0.8935    0.0000 C   0  0  0  0  0  0  0  0  0  0  0  0
   -1.8627   -0.6798    0.0000 C   0  0  0  0  0  0  0  0  0  0  0  0
   -2.0762    0.1169    0.0000 C   0  0  0  0  0  0  0  0  0  0  0  0
   -1.4971    0.6983    0.0000 C   0  0  0  0  0  0  0  0  0  0  0  0
   -0.6997    0.4895    0.0000 C   0  0  0  0  0  0  0  0  0  0  0  0
    1.8028   -2.0222    0.0000 C   0  0  0  0  0  0  0  0  0  0  0  0
    2.6275   -2.0222    0.0000 C   0  0  0  0  0  0  0  0  0  0  0  0
    2.4068    0.7854    0.0000 C   0  0  0  0  0  0  0  0  0  0  0  0
    3.1211    1.1978    0.0000 N   0  0  0  0  0  0  0  0  0  0  0  0
    3.8354    0.7854    0.0000 C   0  0  0  0  0  0  0  0  0  0  0  0
    4.5496    1.1978    0.0000 C   0  0  0  0  0  0  0  0  0  0  0  0
    5.2638    1.6102    0.0000 N   0  0  0  0  0  0  0  0  0  0  0  0
    3.4223    0.0698    0.0000 C   0  0  0  0  0  0  0  0  0  0  0  0
    4.2470    0.0698    0.0000 C   0  0  0  0  0  0  0  0  0  0  0  0
    2.4068   -0.0392    0.0000 O   0  0  0  0  0  0  0  0  0  0  0  0
   -2.8729    0.3303    0.0000 N   0  0  0  0  0  0  0  0  0  0  0  0
   -3.4561   -0.2527    0.0000 C   0  0  0  0  0  0  0  0  0  0  0  0
   -4.2527   -0.0393    0.0000 C   0  0  0  0  0  0  0  0  0  0  0  0
   -4.4661    0.7573    0.0000 S   0  0  0  0  0  0  0  0  0  0  0  0
   -3.8830    1.3405    0.0000 C   0  0  0  0  0  0  0  0  0  0  0  0
   -3.0863    1.1270    0.0000 C   0  0  0  0  0  0  0  0  0  0  0  0
   -5.0504    1.3415    0.0000 O   0  0  0  0  0  0  0  0  0  0  0  0
   -5.2638    0.5449    0.0000 O   0  0  0  0  0  0  0  0  0  0  0  0
    3.3431   -2.4352    0.0000 C   0  0  0  0  0  0  0  0  0  0  0  0
    3.3422   -1.6106    0.0000 C   0  0  0  0  0  0  0  0  0  0  0  0
  1  2  1  0  0  0  0
  2  3  1  0  0  0  0
  3  4  1  0  0  0  0
  4  5  1  0  0  0  0
  5  6  1  0  0  0  0
  1  6  1  0  0  0  0
  5  7  1  6  0  0  0
  7  8  2  0  0  0  0
  8  9  1  0  0  0  0
  9 10  1  0  0  0  0
 10 11  2  0  0  0  0
  7 11  1  0  0  0  0
 11 12  1  0  0  0  0
 12 13  2  0  0  0  0
 13 14  1  0  0  0  0
 14 15  2  0  0  0  0
 15 16  1  0  0  0  0
 16 17  2  0  0  0  0
 12 17  1  0  0  0  0
  9 18  1  0  0  0  0
 18 19  1  0  0  0  0
  4 20  1  1  0  0  0
 20 21  1  0  0  0  0
 21 22  1  0  0  0  0
 22 23  1  0  0  0  0
 23 24  3  0  0  0  0
 22 25  1  0  0  0  0
 25 26  1  0  0  0  0
 22 26  1  0  0  0  0
 20 27  2  0  0  0  0
 15 28  1  0  0  0  0
 28 29  1  0  0  0  0
 29 30  1  0  0  0  0
 30 31  1  0  0  0  0
 31 32  1  0  0  0  0
 28 33  1  0  0  0  0
 32 33  1  0  0  0  0
 31 34  2  0  0  0  0
 31 35  2  0  0  0  0
 19 36  1  0  0  0  0
 36 37  1  0  0  0  0
 19 37  1  0  0  0  0
M  END
> <index>
9

> <Title>

> <chembl_id>
CHEMBL5187747

$$$$

  -OEChem-02052606112D

 40 45  0     1  0  0  0  0  0999 V2000
    0.2637    2.8871    0.0000 C   0  0  0  0  0  0  0  0  0  0  0  0
    0.9781    3.2996    0.0000 C   0  0  0  0  0  0  0  0  0  0  0  0
    1.6927    2.8871    0.0000 C   0  0  0  0  0  0  0  0  0  0  0  0
    1.6927    2.0621    0.0000 C   0  0  2  0  0  0  0  0  0  0  0  0
    0.9781    1.6495    0.0000 C   0  0  1  0  0  0  0  0  0  0  0  0
    0.2637    2.0621    0.0000 C   0  0  0  0  0  0  0  0  0  0  0  0
    0.9781    0.8247    0.0000 C   0  0  0  0  0  0  0  0  0  0  0  0
    1.6452    0.3402    0.0000 N   0  0  0  0  0  0  0  0  0  0  0  0
    1.3904   -0.4438    0.0000 N   0  0  0  0  0  0  0  0  0  0  0  0
    0.5661   -0.4438    0.0000 C   0  0  0  0  0  0  0  0  0  0  0  0
    0.3113    0.3402    0.0000 C   0  0  0  0  0  0  0  0  0  0  0  0
   -0.4853    0.5537    0.0000 C   0  0  0  0  0  0  0  0  0  0  0  0
   -1.0687   -0.0293    0.0000 C   0  0  0  0  0  0  0  0  0  0  0  0
   -1.8628    0.1842    0.0000 C   0  0  0  0  0  0  0  0  0  0  0  0
   -2.0762    0.9811    0.0000 C   0  0  0  0  0  0  0  0  0  0  0  0
   -1.4971    1.5625    0.0000 C   0  0  0  0  0  0  0  0  0  0  0  0
   -0.6997    1.3537    0.0000 C   0  0  0  0  0  0  0  0  0  0  0  0
    1.8028   -1.1580    0.0000 C   0  0  0  0  0  0  0  0  0  0  0  0
    2.4070    1.6496    0.0000 C   0  0  0  0  0  0  0  0  0  0  0  0
    3.1213    2.0621    0.0000 N   0  0  0  0  0  0  0  0  0  0  0  0
    3.8356    1.6496    0.0000 C   0  0  0  0  0  0  0  0  0  0  0  0
    4.5499    2.0621    0.0000 C   0  0  0  0  0  0  0  0  0  0  0  0
    5.2641    2.4744    0.0000 N   0  0  0  0  0  0  0  0  0  0  0  0
    3.4224    0.9340    0.0000 C   0  0  0  0  0  0  0  0  0  0  0  0
    4.2472    0.9340    0.0000 C   0  0  0  0  0  0  0  0  0  0  0  0
    2.4070    0.8249    0.0000 O   0  0  0  0  0  0  0  0  0  0  0  0
   -2.8730    1.1944    0.0000 N   0  0  0  0  0  0  0  0  0  0  0  0
   -3.4562    0.6113    0.0000 C   0  0  0  0  0  0  0  0  0  0  0  0
   -4.2529    0.8248    0.0000 C   0  0  0  0  0  0  0  0  0  0  0  0
   -4.4663    1.6215    0.0000 S   0  0  0  0  0  0  0  0  0  0  0  0
   -3.8832    2.2047    0.0000 C   0  0  0  0  0  0  0  0  0  0  0  0
   -3.0865    1.9912    0.0000 C   0  0  0  0  0  0  0  0  0  0  0  0
   -5.0507    2.2058    0.0000 O   0  0  0  0  0  0  0  0  0  0  0  0
   -5.2641    1.4091    0.0000 O   0  0  0  0  0  0  0  0  0  0  0  0
    2.6277   -1.1584    0.0000 C   0  0  0  0  0  0  0  0  0  0  0  0
    3.0381   -1.8709    0.0000 C   0  0  0  0  0  0  0  0  0  0  0  0
    2.6256   -2.5853    0.0000 C   0  0  0  0  0  0  0  0  0  0  0  0
    1.8049   -2.5869    0.0000 C   0  0  0  0  0  0  0  0  0  0  0  0
    1.3887   -1.8754    0.0000 C   0  0  0  0  0  0  0  0  0  0  0  0
    3.0379   -3.2996    0.0000 F   0  0  0  0  0  0  0  0  0  0  0  0
  1  2  1  0  0  0  0
  2  3  1  0  0  0  0
  3  4  1  0  0  0  0
  4  5  1  0  0  0  0
  5  6  1  0  0  0  0
  1  6  1  0  0  0  0
  5  7  1  6  0  0  0
  7  8  2  0  0  0  0
  8  9  1  0  0  0  0
  9 10  1  0  0  0  0
 10 11  2  0  0  0  0
  7 11  1  0  0  0  0
 11 12  1  0  0  0  0
 12 13  2  0  0  0  0
 13 14  1  0  0  0  0
 14 15  2  0  0  0  0
 15 16  1  0  0  0  0
 16 17  2  0  0  0  0
 12 17  1  0  0  0  0
  9 18  1  0  0  0  0
  4 19  1  1  0  0  0
 19 20  1  0  0  0  0
 20 21  1  0  0  0  0
 21 22  1  0  0  0  0
 22 23  3  0  0  0  0
 21 24  1  0  0  0  0
 24 25  1  0  0  0  0
 21 25  1  0  0  0  0
 19 26  2  0  0  0  0
 15 27  1  0  0  0  0
 27 28  1  0  0  0  0
 28 29  1  0  0  0  0
 29 30  1  0  0  0  0
 30 31  1  0  0  0  0
 27 32  1  0  0  0  0
 31 32  1  0  0  0  0
 30 33  2  0  0  0  0
 30 34  2  0  0  0  0
 18 35  2  0  0  0  0
 35 36  1  0  0  0  0
 36 37  2  0  0  0  0
 37 38  1  0  0  0  0
 38 39  2  0  0  0  0
 18 39  1  0  0  0  0
 37 40  1  0  0  0  0
M  END
> <index>
10

> <Title>

> <chembl_id>
CHEMBL5200434

$$$$

  -OEChem-02052606112D

 40 44  0     1  0  0  0  0  0999 V2000
    0.2637    1.8159    0.0000 C   0  0  0  0  0  0  0  0  0  0  0  0
    0.9781    2.2284    0.0000 C   0  0  0  0  0  0  0  0  0  0  0  0
    1.6930    1.8159    0.0000 C   0  0  0  0  0  0  0  0  0  0  0  0
    1.6930    0.9906    0.0000 C   0  0  2  0  0  0  0  0  0  0  0  0
    0.9781    0.5780    0.0000 C   0  0  1  0  0  0  0  0  0  0  0  0
    0.2637    0.9906    0.0000 C   0  0  0  0  0  0  0  0  0  0  0  0
    0.9781   -0.2468    0.0000 C   0  0  0  0  0  0  0  0  0  0  0  0
    1.6454   -0.7312    0.0000 N   0  0  0  0  0  0  0  0  0  0  0  0
    1.3906   -1.5155    0.0000 N   0  0  0  0  0  0  0  0  0  0  0  0
    0.5659   -1.5155    0.0000 C   0  0  0  0  0  0  0  0  0  0  0  0
    0.3114   -0.7312    0.0000 C   0  0  0  0  0  0  0  0  0  0  0  0
   -0.4853   -0.5179    0.0000 C   0  0  0  0  0  0  0  0  0  0  0  0
   -1.0688   -1.1009    0.0000 C   0  0  0  0  0  0  0  0  0  0  0  0
   -1.8630   -0.8874    0.0000 C   0  0  0  0  0  0  0  0  0  0  0  0
   -2.0764   -0.0903    0.0000 C   0  0  0  0  0  0  0  0  0  0  0  0
   -1.4973    0.4910    0.0000 C   0  0  0  0  0  0  0  0  0  0  0  0
   -0.6998    0.2821    0.0000 C   0  0  0  0  0  0  0  0  0  0  0  0
   -2.8734    0.1228    0.0000 N   0  0  0  0  0  0  0  0  0  0  0  0
   -3.4567   -0.4602    0.0000 C   0  0  0  0  0  0  0  0  0  0  0  0
   -4.2534   -0.2467    0.0000 C   0  0  0  0  0  0  0  0  0  0  0  0
   -4.4669    0.5501    0.0000 S   0  0  0  0  0  0  0  0  0  0  0  0
   -3.8836    1.1333    0.0000 C   0  0  0  0  0  0  0  0  0  0  0  0
   -3.0868    0.9198    0.0000 C   0  0  0  0  0  0  0  0  0  0  0  0
   -5.0513    1.1344    0.0000 O   0  0  0  0  0  0  0  0  0  0  0  0
   -5.2648    0.3376    0.0000 O   0  0  0  0  0  0  0  0  0  0  0  0
    1.8031   -2.2297    0.0000 C   0  0  0  0  0  0  0  0  0  0  0  0
    2.4072    0.5782    0.0000 C   0  0  0  0  0  0  0  0  0  0  0  0
    3.1217    0.9906    0.0000 N   0  0  0  0  0  0  0  0  0  0  0  0
    3.8361    0.5782    0.0000 C   0  0  0  0  0  0  0  0  0  0  0  0
    4.5505    0.9906    0.0000 C   0  0  0  0  0  0  0  0  0  0  0  0
    5.2648    1.4031    0.0000 N   0  0  0  0  0  0  0  0  0  0  0  0
    3.4229   -0.1375    0.0000 C   0  0  0  0  0  0  0  0  0  0  0  0
    4.2478   -0.1375    0.0000 C   0  0  0  0  0  0  0  0  0  0  0  0
    2.4072   -0.2466    0.0000 O   0  0  0  0  0  0  0  0  0  0  0  0
    2.6280   -2.2297    0.0000 C   0  0  0  0  0  0  0  0  0  0  0  0
    3.0404   -2.9441    0.0000 F   0  0  0  0  0  0  0  0  0  0  0  0
    2.6280   -1.4048    0.0000 F   0  0  0  0  0  0  0  0  0  0  0  0
    3.3423   -1.8174    0.0000 F   0  0  0  0  0  0  0  0  0  0  0  0
    1.3914    2.9441    0.0000 F   0  0  0  0  0  0  0  0  0  0  0  0
    0.5665    2.9441    0.0000 F   0  0  0  0  0  0  0  0  0  0  0  0
  1  2  1  0  0  0  0
  2  3  1  0  0  0  0
  3  4  1  0  0  0  0
  4  5  1  0  0  0  0
  5  6  1  0  0  0  0
  1  6  1  0  0  0  0
  5  7  1  6  0  0  0
  7  8  2  0  0  0  0
  8  9  1  0  0  0  0
  9 10  1  0  0  0  0
 10 11  2  0  0  0  0
  7 11  1  0  0  0  0
 11 12  1  0  0  0  0
 12 13  2  0  0  0  0
 13 14  1  0  0  0  0
 14 15  2  0  0  0  0
 15 16  1  0  0  0  0
 16 17  2  0  0  0  0
 12 17  1  0  0  0  0
 15 18  1  0  0  0  0
 18 19  1  0  0  0  0
 19 20  1  0  0  0  0
 20 21  1  0  0  0  0
 21 22  1  0  0  0  0
 18 23  1  0  0  0  0
 22 23  1  0  0  0  0
 21 24  2  0  0  0  0
 21 25  2  0  0  0  0
  9 26  1  0  0  0  0
  4 27  1  1  0  0  0
 27 28  1  0  0  0  0
 28 29  1  0  0  0  0
 29 30  1  0  0  0  0
 30 31  3  0  0  0  0
 29 32  1  0  0  0  0
 32 33  1  0  0  0  0
 29 33  1  0  0  0  0
 27 34  2  0  0  0  0
 26 35  1  0  0  0  0
 35 36  1  0  0  0  0
 35 37  1  0  0  0  0
 35 38  1  0  0  0  0
  2 39  1  0  0  0  0
  2 40  1  0  0  0  0
M  END
> <index>
11

> <Title>

> <chembl_id>
CHEMBL5177796

$$$$

  -OEChem-02052606112D

 42 47  0     1  0  0  0  0  0999 V2000
    0.2637    2.5292    0.0000 C   0  0  0  0  0  0  0  0  0  0  0  0
    0.9781    2.9417    0.0000 C   0  0  0  0  0  0  0  0  0  0  0  0
    1.6927    2.5292    0.0000 C   0  0  0  0  0  0  0  0  0  0  0  0
    1.6927    1.7042    0.0000 C   0  0  2  0  0  0  0  0  0  0  0  0
    0.9781    1.2917    0.0000 C   0  0  1  0  0  0  0  0  0  0  0  0
    0.2637    1.7042    0.0000 C   0  0  0  0  0  0  0  0  0  0  0  0
    0.9781    0.4669    0.0000 C   0  0  0  0  0  0  0  0  0  0  0  0
    1.6451   -0.0175    0.0000 N   0  0  0  0  0  0  0  0  0  0  0  0
    1.3904   -0.8015    0.0000 N   0  0  0  0  0  0  0  0  0  0  0  0
    0.5659   -0.8015    0.0000 C   0  0  0  0  0  0  0  0  0  0  0  0
    0.3113   -0.0175    0.0000 C   0  0  0  0  0  0  0  0  0  0  0  0
   -0.4853    0.1957    0.0000 C   0  0  0  0  0  0  0  0  0  0  0  0
   -1.0687   -0.3871    0.0000 C   0  0  0  0  0  0  0  0  0  0  0  0
   -1.8627   -0.1736    0.0000 C   0  0  0  0  0  0  0  0  0  0  0  0
   -2.0762    0.6233    0.0000 C   0  0  0  0  0  0  0  0  0  0  0  0
   -1.4971    1.2047    0.0000 C   0  0  0  0  0  0  0  0  0  0  0  0
   -0.6997    0.9959    0.0000 C   0  0  0  0  0  0  0  0  0  0  0  0
    1.8028   -1.5158    0.0000 C   0  0  0  0  0  0  0  0  0  0  0  0
    2.4068    1.2918    0.0000 C   0  0  0  0  0  0  0  0  0  0  0  0
    3.1211    1.7042    0.0000 N   0  0  0  0  0  0  0  0  0  0  0  0
    3.8354    1.2918    0.0000 C   0  0  0  0  0  0  0  0  0  0  0  0
    4.5496    1.7042    0.0000 C   0  0  0  0  0  0  0  0  0  0  0  0
    5.2638    2.1166    0.0000 N   0  0  0  0  0  0  0  0  0  0  0  0
    3.4223    0.5762    0.0000 C   0  0  0  0  0  0  0  0  0  0  0  0
    4.2470    0.5762    0.0000 C   0  0  0  0  0  0  0  0  0  0  0  0
    2.4068    0.4671    0.0000 O   0  0  0  0  0  0  0  0  0  0  0  0
   -2.8729    0.8367    0.0000 N   0  0  0  0  0  0  0  0  0  0  0  0
   -3.4561    0.2535    0.0000 C   0  0  0  0  0  0  0  0  0  0  0  0
   -4.2527    0.4670    0.0000 C   0  0  0  0  0  0  0  0  0  0  0  0
   -4.4661    1.2637    0.0000 S   0  0  0  0  0  0  0  0  0  0  0  0
   -3.8830    1.8468    0.0000 C   0  0  0  0  0  0  0  0  0  0  0  0
   -3.0863    1.6333    0.0000 C   0  0  0  0  0  0  0  0  0  0  0  0
   -5.0504    1.8479    0.0000 O   0  0  0  0  0  0  0  0  0  0  0  0
   -5.2638    1.0512    0.0000 O   0  0  0  0  0  0  0  0  0  0  0  0
    2.6276   -1.5160    0.0000 C   0  0  0  0  0  0  0  0  0  0  0  0
    3.0379   -2.2285    0.0000 C   0  0  0  0  0  0  0  0  0  0  0  0
    2.6255   -2.9429    0.0000 C   0  0  0  0  0  0  0  0  0  0  0  0
    1.8049   -2.9446    0.0000 C   0  0  0  0  0  0  0  0  0  0  0  0
    1.3886   -2.2331    0.0000 C   0  0  0  0  0  0  0  0  0  0  0  0
    3.0378   -3.6573    0.0000 F   0  0  0  0  0  0  0  0  0  0  0  0
    1.3913    3.6573    0.0000 F   0  0  0  0  0  0  0  0  0  0  0  0
    0.5666    3.6573    0.0000 F   0  0  0  0  0  0  0  0  0  0  0  0
  1  2  1  0  0  0  0
  2  3  1  0  0  0  0
  3  4  1  0  0  0  0
  4  5  1  0  0  0  0
  5  6  1  0  0  0  0
  1  6  1  0  0  0  0
  5  7  1  6  0  0  0
  7  8  2  0  0  0  0
  8  9  1  0  0  0  0
  9 10  1  0  0  0  0
 10 11  2  0  0  0  0
  7 11  1  0  0  0  0
 11 12  1  0  0  0  0
 12 13  2  0  0  0  0
 13 14  1  0  0  0  0
 14 15  2  0  0  0  0
 15 16  1  0  0  0  0
 16 17  2  0  0  0  0
 12 17  1  0  0  0  0
  9 18  1  0  0  0  0
  4 19  1  1  0  0  0
 19 20  1  0  0  0  0
 20 21  1  0  0  0  0
 21 22  1  0  0  0  0
 22 23  3  0  0  0  0
 21 24  1  0  0  0  0
 24 25  1  0  0  0  0
 21 25  1  0  0  0  0
 19 26  2  0  0  0  0
 15 27  1  0  0  0  0
 27 28  1  0  0  0  0
 28 29  1  0  0  0  0
 29 30  1  0  0  0  0
 30 31  1  0  0  0  0
 27 32  1  0  0  0  0
 31 32  1  0  0  0  0
 30 33  2  0  0  0  0
 30 34  2  0  0  0  0
 18 35  2  0  0  0  0
 35 36  1  0  0  0  0
 36 37  2  0  0  0  0
 37 38  1  0  0  0  0
 38 39  2  0  0  0  0
 18 39  1  0  0  0  0
 37 40  1  0  0  0  0
  2 41  1  0  0  0  0
  2 42  1  0  0  0  0
M  END
> <index>
12

> <Title>

> <chembl_id>
CHEMBL5192725

$$$$
